*SPEF "ieee 1481-1999"
*DESIGN "Element"
*DATE "11:11:11 Fri 11 11, 1111"
*VENDOR "The OpenROAD Project"
*PROGRAM "OpenROAD"
*VERSION "1.0"
*DESIGN_FLOW "NAME_SCOPE LOCAL" "PIN_CAP NONE"
*DIVIDER /
*DELIMITER :
*BUS_DELIMITER []
*T_UNIT 1 PS
*C_UNIT 1 FF
*R_UNIT 1 KOHM
*L_UNIT 1 HENRY

*PORTS
clock I
io_ins_down[0] I
io_ins_down[10] I
io_ins_down[11] I
io_ins_down[12] I
io_ins_down[13] I
io_ins_down[14] I
io_ins_down[15] I
io_ins_down[16] I
io_ins_down[17] I
io_ins_down[18] I
io_ins_down[19] I
io_ins_down[1] I
io_ins_down[20] I
io_ins_down[21] I
io_ins_down[22] I
io_ins_down[23] I
io_ins_down[24] I
io_ins_down[25] I
io_ins_down[26] I
io_ins_down[27] I
io_ins_down[28] I
io_ins_down[29] I
io_ins_down[2] I
io_ins_down[30] I
io_ins_down[31] I
io_ins_down[32] I
io_ins_down[33] I
io_ins_down[34] I
io_ins_down[35] I
io_ins_down[36] I
io_ins_down[37] I
io_ins_down[38] I
io_ins_down[39] I
io_ins_down[3] I
io_ins_down[40] I
io_ins_down[41] I
io_ins_down[42] I
io_ins_down[43] I
io_ins_down[44] I
io_ins_down[45] I
io_ins_down[46] I
io_ins_down[47] I
io_ins_down[48] I
io_ins_down[49] I
io_ins_down[4] I
io_ins_down[50] I
io_ins_down[51] I
io_ins_down[52] I
io_ins_down[53] I
io_ins_down[54] I
io_ins_down[55] I
io_ins_down[56] I
io_ins_down[57] I
io_ins_down[58] I
io_ins_down[59] I
io_ins_down[5] I
io_ins_down[60] I
io_ins_down[61] I
io_ins_down[62] I
io_ins_down[63] I
io_ins_down[6] I
io_ins_down[7] I
io_ins_down[8] I
io_ins_down[9] I
io_ins_left[0] I
io_ins_left[10] I
io_ins_left[11] I
io_ins_left[12] I
io_ins_left[13] I
io_ins_left[14] I
io_ins_left[15] I
io_ins_left[16] I
io_ins_left[17] I
io_ins_left[18] I
io_ins_left[19] I
io_ins_left[1] I
io_ins_left[20] I
io_ins_left[21] I
io_ins_left[22] I
io_ins_left[23] I
io_ins_left[24] I
io_ins_left[25] I
io_ins_left[26] I
io_ins_left[27] I
io_ins_left[28] I
io_ins_left[29] I
io_ins_left[2] I
io_ins_left[30] I
io_ins_left[31] I
io_ins_left[32] I
io_ins_left[33] I
io_ins_left[34] I
io_ins_left[35] I
io_ins_left[36] I
io_ins_left[37] I
io_ins_left[38] I
io_ins_left[39] I
io_ins_left[3] I
io_ins_left[40] I
io_ins_left[41] I
io_ins_left[42] I
io_ins_left[43] I
io_ins_left[44] I
io_ins_left[45] I
io_ins_left[46] I
io_ins_left[47] I
io_ins_left[48] I
io_ins_left[49] I
io_ins_left[4] I
io_ins_left[50] I
io_ins_left[51] I
io_ins_left[52] I
io_ins_left[53] I
io_ins_left[54] I
io_ins_left[55] I
io_ins_left[56] I
io_ins_left[57] I
io_ins_left[58] I
io_ins_left[59] I
io_ins_left[5] I
io_ins_left[60] I
io_ins_left[61] I
io_ins_left[62] I
io_ins_left[63] I
io_ins_left[6] I
io_ins_left[7] I
io_ins_left[8] I
io_ins_left[9] I
io_ins_right[0] I
io_ins_right[10] I
io_ins_right[11] I
io_ins_right[12] I
io_ins_right[13] I
io_ins_right[14] I
io_ins_right[15] I
io_ins_right[16] I
io_ins_right[17] I
io_ins_right[18] I
io_ins_right[19] I
io_ins_right[1] I
io_ins_right[20] I
io_ins_right[21] I
io_ins_right[22] I
io_ins_right[23] I
io_ins_right[24] I
io_ins_right[25] I
io_ins_right[26] I
io_ins_right[27] I
io_ins_right[28] I
io_ins_right[29] I
io_ins_right[2] I
io_ins_right[30] I
io_ins_right[31] I
io_ins_right[32] I
io_ins_right[33] I
io_ins_right[34] I
io_ins_right[35] I
io_ins_right[36] I
io_ins_right[37] I
io_ins_right[38] I
io_ins_right[39] I
io_ins_right[3] I
io_ins_right[40] I
io_ins_right[41] I
io_ins_right[42] I
io_ins_right[43] I
io_ins_right[44] I
io_ins_right[45] I
io_ins_right[46] I
io_ins_right[47] I
io_ins_right[48] I
io_ins_right[49] I
io_ins_right[4] I
io_ins_right[50] I
io_ins_right[51] I
io_ins_right[52] I
io_ins_right[53] I
io_ins_right[54] I
io_ins_right[55] I
io_ins_right[56] I
io_ins_right[57] I
io_ins_right[58] I
io_ins_right[59] I
io_ins_right[5] I
io_ins_right[60] I
io_ins_right[61] I
io_ins_right[62] I
io_ins_right[63] I
io_ins_right[6] I
io_ins_right[7] I
io_ins_right[8] I
io_ins_right[9] I
io_ins_up[0] I
io_ins_up[10] I
io_ins_up[11] I
io_ins_up[12] I
io_ins_up[13] I
io_ins_up[14] I
io_ins_up[15] I
io_ins_up[16] I
io_ins_up[17] I
io_ins_up[18] I
io_ins_up[19] I
io_ins_up[1] I
io_ins_up[20] I
io_ins_up[21] I
io_ins_up[22] I
io_ins_up[23] I
io_ins_up[24] I
io_ins_up[25] I
io_ins_up[26] I
io_ins_up[27] I
io_ins_up[28] I
io_ins_up[29] I
io_ins_up[2] I
io_ins_up[30] I
io_ins_up[31] I
io_ins_up[32] I
io_ins_up[33] I
io_ins_up[34] I
io_ins_up[35] I
io_ins_up[36] I
io_ins_up[37] I
io_ins_up[38] I
io_ins_up[39] I
io_ins_up[3] I
io_ins_up[40] I
io_ins_up[41] I
io_ins_up[42] I
io_ins_up[43] I
io_ins_up[44] I
io_ins_up[45] I
io_ins_up[46] I
io_ins_up[47] I
io_ins_up[48] I
io_ins_up[49] I
io_ins_up[4] I
io_ins_up[50] I
io_ins_up[51] I
io_ins_up[52] I
io_ins_up[53] I
io_ins_up[54] I
io_ins_up[55] I
io_ins_up[56] I
io_ins_up[57] I
io_ins_up[58] I
io_ins_up[59] I
io_ins_up[5] I
io_ins_up[60] I
io_ins_up[61] I
io_ins_up[62] I
io_ins_up[63] I
io_ins_up[6] I
io_ins_up[7] I
io_ins_up[8] I
io_ins_up[9] I
io_lsbIns_1 I
io_lsbIns_2 I
io_lsbIns_3 I
io_lsbOuts_0 O
io_lsbOuts_1 O
io_lsbOuts_2 O
io_lsbOuts_3 O
io_outs_down[0] O
io_outs_down[10] O
io_outs_down[11] O
io_outs_down[12] O
io_outs_down[13] O
io_outs_down[14] O
io_outs_down[15] O
io_outs_down[16] O
io_outs_down[17] O
io_outs_down[18] O
io_outs_down[19] O
io_outs_down[1] O
io_outs_down[20] O
io_outs_down[21] O
io_outs_down[22] O
io_outs_down[23] O
io_outs_down[24] O
io_outs_down[25] O
io_outs_down[26] O
io_outs_down[27] O
io_outs_down[28] O
io_outs_down[29] O
io_outs_down[2] O
io_outs_down[30] O
io_outs_down[31] O
io_outs_down[32] O
io_outs_down[33] O
io_outs_down[34] O
io_outs_down[35] O
io_outs_down[36] O
io_outs_down[37] O
io_outs_down[38] O
io_outs_down[39] O
io_outs_down[3] O
io_outs_down[40] O
io_outs_down[41] O
io_outs_down[42] O
io_outs_down[43] O
io_outs_down[44] O
io_outs_down[45] O
io_outs_down[46] O
io_outs_down[47] O
io_outs_down[48] O
io_outs_down[49] O
io_outs_down[4] O
io_outs_down[50] O
io_outs_down[51] O
io_outs_down[52] O
io_outs_down[53] O
io_outs_down[54] O
io_outs_down[55] O
io_outs_down[56] O
io_outs_down[57] O
io_outs_down[58] O
io_outs_down[59] O
io_outs_down[5] O
io_outs_down[60] O
io_outs_down[61] O
io_outs_down[62] O
io_outs_down[63] O
io_outs_down[6] O
io_outs_down[7] O
io_outs_down[8] O
io_outs_down[9] O
io_outs_left[0] O
io_outs_left[10] O
io_outs_left[11] O
io_outs_left[12] O
io_outs_left[13] O
io_outs_left[14] O
io_outs_left[15] O
io_outs_left[16] O
io_outs_left[17] O
io_outs_left[18] O
io_outs_left[19] O
io_outs_left[1] O
io_outs_left[20] O
io_outs_left[21] O
io_outs_left[22] O
io_outs_left[23] O
io_outs_left[24] O
io_outs_left[25] O
io_outs_left[26] O
io_outs_left[27] O
io_outs_left[28] O
io_outs_left[29] O
io_outs_left[2] O
io_outs_left[30] O
io_outs_left[31] O
io_outs_left[32] O
io_outs_left[33] O
io_outs_left[34] O
io_outs_left[35] O
io_outs_left[36] O
io_outs_left[37] O
io_outs_left[38] O
io_outs_left[39] O
io_outs_left[3] O
io_outs_left[40] O
io_outs_left[41] O
io_outs_left[42] O
io_outs_left[43] O
io_outs_left[44] O
io_outs_left[45] O
io_outs_left[46] O
io_outs_left[47] O
io_outs_left[48] O
io_outs_left[49] O
io_outs_left[4] O
io_outs_left[50] O
io_outs_left[51] O
io_outs_left[52] O
io_outs_left[53] O
io_outs_left[54] O
io_outs_left[55] O
io_outs_left[56] O
io_outs_left[57] O
io_outs_left[58] O
io_outs_left[59] O
io_outs_left[5] O
io_outs_left[60] O
io_outs_left[61] O
io_outs_left[62] O
io_outs_left[63] O
io_outs_left[6] O
io_outs_left[7] O
io_outs_left[8] O
io_outs_left[9] O
io_outs_right[0] O
io_outs_right[10] O
io_outs_right[11] O
io_outs_right[12] O
io_outs_right[13] O
io_outs_right[14] O
io_outs_right[15] O
io_outs_right[16] O
io_outs_right[17] O
io_outs_right[18] O
io_outs_right[19] O
io_outs_right[1] O
io_outs_right[20] O
io_outs_right[21] O
io_outs_right[22] O
io_outs_right[23] O
io_outs_right[24] O
io_outs_right[25] O
io_outs_right[26] O
io_outs_right[27] O
io_outs_right[28] O
io_outs_right[29] O
io_outs_right[2] O
io_outs_right[30] O
io_outs_right[31] O
io_outs_right[32] O
io_outs_right[33] O
io_outs_right[34] O
io_outs_right[35] O
io_outs_right[36] O
io_outs_right[37] O
io_outs_right[38] O
io_outs_right[39] O
io_outs_right[3] O
io_outs_right[40] O
io_outs_right[41] O
io_outs_right[42] O
io_outs_right[43] O
io_outs_right[44] O
io_outs_right[45] O
io_outs_right[46] O
io_outs_right[47] O
io_outs_right[48] O
io_outs_right[49] O
io_outs_right[4] O
io_outs_right[50] O
io_outs_right[51] O
io_outs_right[52] O
io_outs_right[53] O
io_outs_right[54] O
io_outs_right[55] O
io_outs_right[56] O
io_outs_right[57] O
io_outs_right[58] O
io_outs_right[59] O
io_outs_right[5] O
io_outs_right[60] O
io_outs_right[61] O
io_outs_right[62] O
io_outs_right[63] O
io_outs_right[6] O
io_outs_right[7] O
io_outs_right[8] O
io_outs_right[9] O
io_outs_up[0] O
io_outs_up[10] O
io_outs_up[11] O
io_outs_up[12] O
io_outs_up[13] O
io_outs_up[14] O
io_outs_up[15] O
io_outs_up[16] O
io_outs_up[17] O
io_outs_up[18] O
io_outs_up[19] O
io_outs_up[1] O
io_outs_up[20] O
io_outs_up[21] O
io_outs_up[22] O
io_outs_up[23] O
io_outs_up[24] O
io_outs_up[25] O
io_outs_up[26] O
io_outs_up[27] O
io_outs_up[28] O
io_outs_up[29] O
io_outs_up[2] O
io_outs_up[30] O
io_outs_up[31] O
io_outs_up[32] O
io_outs_up[33] O
io_outs_up[34] O
io_outs_up[35] O
io_outs_up[36] O
io_outs_up[37] O
io_outs_up[38] O
io_outs_up[39] O
io_outs_up[3] O
io_outs_up[40] O
io_outs_up[41] O
io_outs_up[42] O
io_outs_up[43] O
io_outs_up[44] O
io_outs_up[45] O
io_outs_up[46] O
io_outs_up[47] O
io_outs_up[48] O
io_outs_up[49] O
io_outs_up[4] O
io_outs_up[50] O
io_outs_up[51] O
io_outs_up[52] O
io_outs_up[53] O
io_outs_up[54] O
io_outs_up[55] O
io_outs_up[56] O
io_outs_up[57] O
io_outs_up[58] O
io_outs_up[59] O
io_outs_up[5] O
io_outs_up[60] O
io_outs_up[61] O
io_outs_up[62] O
io_outs_up[63] O
io_outs_up[6] O
io_outs_up[7] O
io_outs_up[8] O
io_outs_up[9] O
VDD B
VSS B

*D_NET REG\[0\] 0.39275
*CONN
*I _259_:Y O *D INVx3_ASAP7_75t_R
*I io_outs_left_mult/mod.a_registered\[0\]\$_DFF_P_:D I *D DFFHQNx1_ASAP7_75t_R
*I io_outs_up_mult/mod.b_registered\[0\]\$_DFF_P_:D I *D DFFHQNx1_ASAP7_75t_R
*CAP
1 REG\[0\]:0 0.00467972
2 REG\[0\]:1 0.0233986
3 REG\[0\]:2 0.168297
4 REG\[0\]:3 0.196375
*RES
1 REG\[0\]:0 REG\[0\]:3 0.00174502
2 REG\[0\]:0 io_outs_up_mult/mod.b_registered\[0\]\$_DFF_P_:D 0.0154
3 REG\[0\]:1 REG\[0\]:3 0.00872508
4 REG\[0\]:1 io_outs_left_mult/mod.a_registered\[0\]\$_DFF_P_:D 0.0154
5 REG\[0\]:2 REG\[0\]:2 1e-06
6 REG\[0\]:2 _259_:Y 0.0154
7 REG\[0\]:2 _259_:Y 1e-06
8 REG\[0\]:3 REG\[0\]:2 0.0627559
9 REG\[0\]:2 _259_:Y 1e-06
*END

*D_NET REG\[1\] 0.964023
*CONN
*I _270_:Y O *D INVx3_ASAP7_75t_R
*I io_outs_left_mult/mod.a_registered\[1\]\$_DFF_P_:D I *D DFFHQNx1_ASAP7_75t_R
*I io_outs_up_mult/mod.b_registered\[1\]\$_DFF_P_:D I *D DFFHQNx1_ASAP7_75t_R
*CAP
1 REG\[1\]:0 0.355485
2 REG\[1\]:1 0.116993
3 REG\[1\]:2 0.00953276
4 REG\[1\]:3 0.482011
*RES
1 REG\[1\]:0 REG\[1\]:3 0.132557
2 REG\[1\]:0 io_outs_up_mult/mod.b_registered\[1\]\$_DFF_P_:D 0.0154
3 REG\[1\]:1 REG\[1\]:1 1e-06
4 REG\[1\]:1 _270_:Y 0.0154
5 REG\[1\]:1 _270_:Y 1e-06
6 REG\[1\]:2 REG\[1\]:3 0.00355466
7 REG\[1\]:2 io_outs_left_mult/mod.a_registered\[1\]\$_DFF_P_:D 0.0154
8 REG\[1\]:3 REG\[1\]:1 0.0436254
9 REG\[1\]:1 _270_:Y 1e-06
*END

*D_NET REG\[2\] 0.804565
*CONN
*I _281_:Y O *D INVx3_ASAP7_75t_R
*I io_outs_left_mult/mod.a_registered\[2\]\$_DFF_P_:D I *D DFFHQNx1_ASAP7_75t_R
*I io_outs_up_mult/mod.b_registered\[2\]\$_DFF_P_:D I *D DFFHQNx1_ASAP7_75t_R
*CAP
1 REG\[2\]:0 0.350979
2 REG\[2\]:1 0.402283
3 REG\[2\]:2 0.0513036
*RES
1 REG\[2\]:0 REG\[2\]:1 0.130876
2 REG\[2\]:0 io_outs_up_mult/mod.b_registered\[2\]\$_DFF_P_:D 0.0154
3 REG\[2\]:1 io_outs_left_mult/mod.a_registered\[2\]\$_DFF_P_:D 0.0154
4 REG\[2\]:1 REG\[2\]:2 0.0191305
5 REG\[2\]:1 io_outs_left_mult/mod.a_registered\[2\]\$_DFF_P_:D 1e-06
6 REG\[2\]:2 _281_:Y 0.0154
7 REG\[2\]:2 REG\[2\]:2 1e-06
8 REG\[2\]:2 _281_:Y 1e-06
9 REG\[2\]:2 _281_:Y 1e-06
*END

*D_NET REG\[3\] 0.215614
*CONN
*I _284_:Y O *D INVx3_ASAP7_75t_R
*I io_outs_left_mult/mod.a_registered\[3\]\$_DFF_P_:D I *D DFFHQNx1_ASAP7_75t_R
*I io_outs_up_mult/mod.b_registered\[3\]\$_DFF_P_:D I *D DFFHQNx1_ASAP7_75t_R
*CAP
1 REG\[3\]:0 0.0750489
2 REG\[3\]:1 0.107807
3 REG\[3\]:2 0.032758
*RES
1 REG\[3\]:0 REG\[3\]:0 1e-06
2 REG\[3\]:0 _284_:Y 0.0154
3 REG\[3\]:0 _284_:Y 1e-06
4 REG\[3\]:1 REG\[3\]:0 0.0279849
5 REG\[3\]:1 io_outs_up_mult/mod.b_registered\[3\]\$_DFF_P_:D 0.0154
6 REG\[3\]:0 _284_:Y 1e-06
7 REG\[3\]:2 REG\[3\]:1 0.0122151
8 REG\[3\]:2 io_outs_left_mult/mod.a_registered\[3\]\$_DFF_P_:D 0.0154
9 REG\[3\]:1 io_outs_up_mult/mod.b_registered\[3\]\$_DFF_P_:D 1e-06
*END

*D_NET REG_1\[0\] 1.17894
*CONN
*I _291_:Y O *D INVx3_ASAP7_75t_R
*I io_outs_down_mult/mod.a_registered\[0\]\$_DFF_P_:D I *D DFFHQNx1_ASAP7_75t_R
*I io_outs_left_mult/mod.b_registered\[0\]\$_DFF_P_:D I *D DFFHQNx1_ASAP7_75t_R
*CAP
1 REG_1\[0\]:0 0.187189
2 REG_1\[0\]:1 0.589472
3 REG_1\[0\]:2 0.402283
*RES
1 REG_1\[0\]:0 REG_1\[0\]:1 0.0698006
2 REG_1\[0\]:0 io_outs_down_mult/mod.a_registered\[0\]\$_DFF_P_:D 0.0154
3 REG_1\[0\]:1 io_outs_left_mult/mod.b_registered\[0\]\$_DFF_P_:D 0.0154
4 REG_1\[0\]:1 REG_1\[0\]:2 0.150007
5 REG_1\[0\]:1 io_outs_left_mult/mod.b_registered\[0\]\$_DFF_P_:D 1e-06
6 REG_1\[0\]:2 _291_:Y 0.0154
7 REG_1\[0\]:2 REG_1\[0\]:2 1e-06
8 REG_1\[0\]:2 _291_:Y 1e-06
9 REG_1\[0\]:2 _291_:Y 1e-06
*END

*D_NET REG_1\[1\] 0.813925
*CONN
*I _302_:Y O *D INVx3_ASAP7_75t_R
*I io_outs_down_mult/mod.a_registered\[1\]\$_DFF_P_:D I *D DFFHQNx1_ASAP7_75t_R
*I io_outs_left_mult/mod.b_registered\[1\]\$_DFF_P_:D I *D DFFHQNx1_ASAP7_75t_R
*CAP
1 REG_1\[1\]:0 0.0140392
2 REG_1\[1\]:1 0.0233986
3 REG_1\[1\]:2 0.369525
4 REG_1\[1\]:3 0.406962
*RES
1 REG_1\[1\]:0 REG_1\[1\]:3 0.00523505
2 REG_1\[1\]:0 io_outs_down_mult/mod.a_registered\[1\]\$_DFF_P_:D 0.0154
3 REG_1\[1\]:1 REG_1\[1\]:3 0.00872508
4 REG_1\[1\]:1 io_outs_left_mult/mod.b_registered\[1\]\$_DFF_P_:D 0.0154
5 REG_1\[1\]:2 REG_1\[1\]:2 1e-06
6 REG_1\[1\]:2 _302_:Y 0.0154
7 REG_1\[1\]:2 _302_:Y 1e-06
8 REG_1\[1\]:3 REG_1\[1\]:2 0.137792
9 REG_1\[1\]:2 _302_:Y 1e-06
*END

*D_NET REG_1\[2\] 1.25382
*CONN
*I _313_:Y O *D INVx3_ASAP7_75t_R
*I io_outs_down_mult/mod.a_registered\[2\]\$_DFF_P_:D I *D DFFHQNx1_ASAP7_75t_R
*I io_outs_left_mult/mod.b_registered\[2\]\$_DFF_P_:D I *D DFFHQNx1_ASAP7_75t_R
*CAP
1 REG_1\[2\]:0 0.238666
2 REG_1\[2\]:1 0.626909
3 REG_1\[2\]:2 0.388243
*RES
1 REG_1\[2\]:0 REG_1\[2\]:1 0.0889958
2 REG_1\[2\]:0 io_outs_down_mult/mod.a_registered\[2\]\$_DFF_P_:D 0.0154
3 REG_1\[2\]:1 io_outs_left_mult/mod.b_registered\[2\]\$_DFF_P_:D 0.0154
4 REG_1\[2\]:1 REG_1\[2\]:2 0.144772
5 REG_1\[2\]:1 io_outs_left_mult/mod.b_registered\[2\]\$_DFF_P_:D 1e-06
6 REG_1\[2\]:2 _313_:Y 0.0154
7 REG_1\[2\]:2 REG_1\[2\]:2 1e-06
8 REG_1\[2\]:2 _313_:Y 1e-06
9 REG_1\[2\]:2 _313_:Y 1e-06
*END

*D_NET REG_1\[3\] 1.25382
*CONN
*I _316_:Y O *D INVx3_ASAP7_75t_R
*I io_outs_down_mult/mod.a_registered\[3\]\$_DFF_P_:D I *D DFFHQNx1_ASAP7_75t_R
*I io_outs_left_mult/mod.b_registered\[3\]\$_DFF_P_:D I *D DFFHQNx1_ASAP7_75t_R
*CAP
1 REG_1\[3\]:0 0.0187189
2 REG_1\[3\]:1 0.350979
3 REG_1\[3\]:2 0.257211
4 REG_1\[3\]:3 0.626909
*RES
1 REG_1\[3\]:0 REG_1\[3\]:3 0.00698006
2 REG_1\[3\]:0 io_outs_left_mult/mod.b_registered\[3\]\$_DFF_P_:D 0.0154
3 REG_1\[3\]:1 REG_1\[3\]:3 0.130876
4 REG_1\[3\]:1 io_outs_down_mult/mod.a_registered\[3\]\$_DFF_P_:D 0.0154
5 REG_1\[3\]:2 REG_1\[3\]:2 1e-06
6 REG_1\[3\]:2 _316_:Y 0.0154
7 REG_1\[3\]:2 _316_:Y 1e-06
8 REG_1\[3\]:3 REG_1\[3\]:2 0.0959112
9 REG_1\[3\]:2 _316_:Y 1e-06
*END

*D_NET REG_2\[0\] 0.215267
*CONN
*I _323_:Y O *D INVx3_ASAP7_75t_R
*I io_outs_right_mult/mod.b_registered\[0\]\$_DFF_P_:D I *D DFFHQNx1_ASAP7_75t_R
*I io_outs_up_mult/mod.a_registered\[0\]\$_DFF_P_:D I *D DFFHQNx1_ASAP7_75t_R
*CAP
1 REG_2\[0\]:0 0.0747022
2 REG_2\[0\]:1 0.0233986
3 REG_2\[0\]:2 0.00953276
4 REG_2\[0\]:3 0.107634
*RES
1 REG_2\[0\]:0 REG_2\[0\]:3 0.0278556
2 REG_2\[0\]:0 io_outs_up_mult/mod.a_registered\[0\]\$_DFF_P_:D 0.0154
3 REG_2\[0\]:1 REG_2\[0\]:1 1e-06
4 REG_2\[0\]:1 _323_:Y 0.0154
5 REG_2\[0\]:1 _323_:Y 1e-06
6 REG_2\[0\]:2 REG_2\[0\]:3 0.00355466
7 REG_2\[0\]:2 io_outs_right_mult/mod.b_registered\[0\]\$_DFF_P_:D 0.0154
8 REG_2\[0\]:3 REG_2\[0\]:1 0.00872508
9 REG_2\[0\]:1 _323_:Y 1e-06
*END

*D_NET REG_2\[1\] 0.103301
*CONN
*I _334_:Y O *D INVx3_ASAP7_75t_R
*I io_outs_right_mult/mod.b_registered\[1\]\$_DFF_P_:D I *D DFFHQNx1_ASAP7_75t_R
*I io_outs_up_mult/mod.a_registered\[1\]\$_DFF_P_:D I *D DFFHQNx1_ASAP7_75t_R
*CAP
1 REG_2\[1\]:0 0.0235719
2 REG_2\[1\]:1 0.0233986
3 REG_2\[1\]:2 0.00467972
4 REG_2\[1\]:3 0.0516503
*RES
1 REG_2\[1\]:0 REG_2\[1\]:0 1e-06
2 REG_2\[1\]:0 _334_:Y 0.0154
3 REG_2\[1\]:0 _334_:Y 1e-06
4 REG_2\[1\]:1 REG_2\[1\]:3 0.00872508
5 REG_2\[1\]:1 io_outs_up_mult/mod.a_registered\[1\]\$_DFF_P_:D 0.0154
6 REG_2\[1\]:2 REG_2\[1\]:3 0.00174502
7 REG_2\[1\]:2 io_outs_right_mult/mod.b_registered\[1\]\$_DFF_P_:D 0.0154
8 REG_2\[1\]:3 REG_2\[1\]:0 0.00878971
9 REG_2\[1\]:0 _334_:Y 1e-06
*END

*D_NET REG_2\[2\] 0.252705
*CONN
*I _345_:Y O *D INVx3_ASAP7_75t_R
*I io_outs_right_mult/mod.b_registered\[2\]\$_DFF_P_:D I *D DFFHQNx1_ASAP7_75t_R
*I io_outs_up_mult/mod.a_registered\[2\]\$_DFF_P_:D I *D DFFHQNx1_ASAP7_75t_R
*CAP
1 REG_2\[2\]:0 0.0934211
2 REG_2\[2\]:1 0.126352
3 REG_2\[2\]:2 0.0329314
*RES
1 REG_2\[2\]:0 REG_2\[2\]:1 0.0348357
2 REG_2\[2\]:0 io_outs_up_mult/mod.a_registered\[2\]\$_DFF_P_:D 0.0154
3 REG_2\[2\]:1 _345_:Y 0.0154
4 REG_2\[2\]:1 REG_2\[2\]:1 1e-06
5 REG_2\[2\]:1 _345_:Y 1e-06
6 REG_2\[2\]:1 _345_:Y 1e-06
7 REG_2\[2\]:2 REG_2\[2\]:1 0.0122797
8 REG_2\[2\]:2 io_outs_right_mult/mod.b_registered\[2\]\$_DFF_P_:D 0.0154
9 REG_2\[2\]:1 _345_:Y 1e-06
*END

*D_NET REG_2\[3\] 0.196895
*CONN
*I _348_:Y O *D INVx3_ASAP7_75t_R
*I io_outs_right_mult/mod.b_registered\[3\]\$_DFF_P_:D I *D DFFHQNx1_ASAP7_75t_R
*I io_outs_up_mult/mod.a_registered\[3\]\$_DFF_P_:D I *D DFFHQNx1_ASAP7_75t_R
*CAP
1 REG_2\[3\]:0 0.0282516
2 REG_2\[3\]:1 0.0984475
3 REG_2\[3\]:2 0.0701958
*RES
1 REG_2\[3\]:0 REG_2\[3\]:0 1e-06
2 REG_2\[3\]:0 _348_:Y 0.0154
3 REG_2\[3\]:0 _348_:Y 1e-06
4 REG_2\[3\]:1 REG_2\[3\]:0 0.0105347
5 REG_2\[3\]:1 io_outs_right_mult/mod.b_registered\[3\]\$_DFF_P_:D 0.0154
6 REG_2\[3\]:0 _348_:Y 1e-06
7 REG_2\[3\]:2 REG_2\[3\]:1 0.0261752
8 REG_2\[3\]:2 io_outs_up_mult/mod.a_registered\[3\]\$_DFF_P_:D 0.0154
9 REG_2\[3\]:1 io_outs_right_mult/mod.b_registered\[3\]\$_DFF_P_:D 1e-06
*END

*D_NET REG_4\[0\] 1.32869
*CONN
*I _355_:Y O *D INVx3_ASAP7_75t_R
*I io_outs_down_mult/mod.b_registered\[0\]\$_DFF_P_:D I *D DFFHQNx1_ASAP7_75t_R
*I io_outs_right_mult/mod.a_registered\[0\]\$_DFF_P_:D I *D DFFHQNx1_ASAP7_75t_R
*CAP
1 REG_4\[0\]:0 0.102954
2 REG_4\[0\]:1 0.664347
3 REG_4\[0\]:2 0.561393
*RES
1 REG_4\[0\]:0 REG_4\[0\]:1 0.0383903
2 REG_4\[0\]:0 io_outs_right_mult/mod.a_registered\[0\]\$_DFF_P_:D 0.0154
3 REG_4\[0\]:1 io_outs_down_mult/mod.b_registered\[0\]\$_DFF_P_:D 0.0154
4 REG_4\[0\]:1 REG_4\[0\]:2 0.209337
5 REG_4\[0\]:1 io_outs_down_mult/mod.b_registered\[0\]\$_DFF_P_:D 1e-06
6 REG_4\[0\]:2 _355_:Y 0.0154
7 REG_4\[0\]:2 REG_4\[0\]:2 1e-06
8 REG_4\[0\]:2 _355_:Y 1e-06
9 REG_4\[0\]:2 _355_:Y 1e-06
*END

*D_NET REG_4\[1\] 0.542848
*CONN
*I _366_:Y O *D INVx3_ASAP7_75t_R
*I io_outs_down_mult/mod.b_registered\[1\]\$_DFF_P_:D I *D DFFHQNx1_ASAP7_75t_R
*I io_outs_right_mult/mod.a_registered\[1\]\$_DFF_P_:D I *D DFFHQNx1_ASAP7_75t_R
*CAP
1 REG_4\[1\]:0 0.0513036
2 REG_4\[1\]:1 0.210587
3 REG_4\[1\]:2 0.00953276
4 REG_4\[1\]:3 0.271424
*RES
1 REG_4\[1\]:0 REG_4\[1\]:3 0.0191305
2 REG_4\[1\]:0 io_outs_right_mult/mod.a_registered\[1\]\$_DFF_P_:D 0.0154
3 REG_4\[1\]:1 REG_4\[1\]:1 1e-06
4 REG_4\[1\]:1 _366_:Y 0.0154
5 REG_4\[1\]:1 _366_:Y 1e-06
6 REG_4\[1\]:2 REG_4\[1\]:3 0.00355466
7 REG_4\[1\]:2 io_outs_down_mult/mod.b_registered\[1\]\$_DFF_P_:D 0.0154
8 REG_4\[1\]:3 REG_4\[1\]:1 0.0785257
9 REG_4\[1\]:1 _366_:Y 1e-06
*END

*D_NET REG_4\[2\] 0.140045
*CONN
*I _377_:Y O *D INVx3_ASAP7_75t_R
*I io_outs_down_mult/mod.b_registered\[2\]\$_DFF_P_:D I *D DFFHQNx1_ASAP7_75t_R
*I io_outs_right_mult/mod.a_registered\[2\]\$_DFF_P_:D I *D DFFHQNx1_ASAP7_75t_R
*CAP
1 REG_4\[2\]:0 0.032758
2 REG_4\[2\]:1 0.0700225
3 REG_4\[2\]:2 0.0372644
*RES
1 REG_4\[2\]:0 REG_4\[2\]:1 0.0122151
2 REG_4\[2\]:0 io_outs_down_mult/mod.b_registered\[2\]\$_DFF_P_:D 0.0154
3 REG_4\[2\]:1 io_outs_right_mult/mod.a_registered\[2\]\$_DFF_P_:D 0.0154
4 REG_4\[2\]:1 REG_4\[2\]:2 0.0138955
5 REG_4\[2\]:1 io_outs_right_mult/mod.a_registered\[2\]\$_DFF_P_:D 1e-06
6 REG_4\[2\]:2 _377_:Y 0.0154
7 REG_4\[2\]:2 REG_4\[2\]:2 1e-06
8 REG_4\[2\]:2 _377_:Y 1e-06
9 REG_4\[2\]:2 _377_:Y 1e-06
*END

*D_NET REG_4\[3\] 0.870081
*CONN
*I _380_:Y O *D INVx3_ASAP7_75t_R
*I io_outs_down_mult/mod.b_registered\[3\]\$_DFF_P_:D I *D DFFHQNx1_ASAP7_75t_R
*I io_outs_right_mult/mod.a_registered\[3\]\$_DFF_P_:D I *D DFFHQNx1_ASAP7_75t_R
*CAP
1 REG_4\[3\]:0 0.0701958
2 REG_4\[3\]:1 0.0233986
3 REG_4\[3\]:2 0.341446
4 REG_4\[3\]:3 0.435041
*RES
1 REG_4\[3\]:0 REG_4\[3\]:3 0.0261752
2 REG_4\[3\]:0 io_outs_down_mult/mod.b_registered\[3\]\$_DFF_P_:D 0.0154
3 REG_4\[3\]:1 REG_4\[3\]:3 0.00872508
4 REG_4\[3\]:1 io_outs_right_mult/mod.a_registered\[3\]\$_DFF_P_:D 0.0154
5 REG_4\[3\]:2 REG_4\[3\]:2 1e-06
6 REG_4\[3\]:2 _380_:Y 0.0154
7 REG_4\[3\]:2 _380_:Y 1e-06
8 REG_4\[3\]:3 REG_4\[3\]:2 0.127321
9 REG_4\[3\]:2 _380_:Y 1e-06
*END

*D_NET _000_ 0.125313
*CONN
*I _258_:A I *D INVx3_ASAP7_75t_R
*I io_outs_up_REG\[9\]\$_DFF_P_:QN O *D DFFHQNx1_ASAP7_75t_R
*CAP
1 _000_:0 0.0626563
2 _000_:1 0.0626563
*RES
1 _000_:0 _000_:0 1e-06
2 _000_:0 io_outs_up_REG\[9\]\$_DFF_P_:QN 0.0154
3 _000_:0 io_outs_up_REG\[9\]\$_DFF_P_:QN 1e-06
4 _000_:1 _000_:0 0.0233638
5 _000_:1 _258_:A 0.0154
6 _000_:0 io_outs_up_REG\[9\]\$_DFF_P_:QN 1e-06
*END

*D_NET _001_ 0.192908
*CONN
*I REG\[0\]\$_DFF_P_:QN O *D DFFHQNx1_ASAP7_75t_R
*I _259_:A I *D INVx3_ASAP7_75t_R
*CAP
1 _001_:0 0.0964542
2 _001_:1 0.0964542
*RES
1 _001_:0 _001_:1 0.0359667
2 _001_:0 _259_:A 0.0154
3 _001_:1 REG\[0\]\$_DFF_P_:QN 0.0154
4 _001_:1 _001_:1 1e-06
5 _001_:1 REG\[0\]\$_DFF_P_:QN 1e-06
6 _001_:1 REG\[0\]\$_DFF_P_:QN 1e-06
*END

*D_NET _002_ 0.0597964
*CONN
*I REG\[10\]\$_DFF_P_:QN O *D DFFHQNx1_ASAP7_75t_R
*I _260_:A I *D INVx3_ASAP7_75t_R
*CAP
1 _002_:0 0.0298982
2 _002_:1 0.0298982
*RES
1 _002_:0 _002_:0 1e-06
2 _002_:0 REG\[10\]\$_DFF_P_:QN 0.0154
3 _002_:0 REG\[10\]\$_DFF_P_:QN 1e-06
4 _002_:1 _002_:0 0.0111487
5 _002_:1 _260_:A 0.0154
6 _002_:0 REG\[10\]\$_DFF_P_:QN 1e-06
*END

*D_NET _003_ 0.127392
*CONN
*I REG\[11\]\$_DFF_P_:QN O *D DFFHQNx1_ASAP7_75t_R
*I _261_:A I *D INVx3_ASAP7_75t_R
*CAP
1 _003_:0 0.0636962
2 _003_:1 0.0636962
*RES
1 _003_:0 _003_:1 0.0237516
2 _003_:0 _261_:A 0.0154
3 _003_:1 REG\[11\]\$_DFF_P_:QN 0.0154
4 _003_:1 _003_:1 1e-06
5 _003_:1 REG\[11\]\$_DFF_P_:QN 1e-06
6 _003_:1 REG\[11\]\$_DFF_P_:QN 1e-06
*END

*D_NET _004_ 0.050437
*CONN
*I REG\[12\]\$_DFF_P_:QN O *D DFFHQNx1_ASAP7_75t_R
*I _262_:A I *D INVx3_ASAP7_75t_R
*CAP
1 _004_:0 0.0252185
2 _004_:1 0.0252185
*RES
1 _004_:0 _004_:0 1e-06
2 _004_:0 REG\[12\]\$_DFF_P_:QN 0.0154
3 _004_:0 REG\[12\]\$_DFF_P_:QN 1e-06
4 _004_:1 _004_:0 0.00940369
5 _004_:1 _262_:A 0.0154
6 _004_:0 REG\[12\]\$_DFF_P_:QN 1e-06
*END

*D_NET _005_ 0.127392
*CONN
*I REG\[13\]\$_DFF_P_:QN O *D DFFHQNx1_ASAP7_75t_R
*I _263_:A I *D INVx3_ASAP7_75t_R
*CAP
1 _005_:0 0.0636962
2 _005_:1 0.0636962
*RES
1 _005_:0 _005_:1 0.0237516
2 _005_:0 _263_:A 0.0154
3 _005_:1 REG\[13\]\$_DFF_P_:QN 0.0154
4 _005_:1 _005_:1 1e-06
5 _005_:1 REG\[13\]\$_DFF_P_:QN 1e-06
6 _005_:1 REG\[13\]\$_DFF_P_:QN 1e-06
*END

*D_NET _006_ 0.0129992
*CONN
*I REG\[14\]\$_DFF_P_:QN O *D DFFHQNx1_ASAP7_75t_R
*I _264_:A I *D INVx3_ASAP7_75t_R
*CAP
1 _006_:0 0.00649961
2 _006_:1 0.00649961
*RES
1 _006_:0 _006_:0 1e-06
2 _006_:0 REG\[14\]\$_DFF_P_:QN 0.0154
3 _006_:0 REG\[14\]\$_DFF_P_:QN 1e-06
4 _006_:1 _006_:0 0.00242363
5 _006_:1 _264_:A 0.0154
6 _006_:0 REG\[14\]\$_DFF_P_:QN 1e-06
*END

*D_NET _007_ 0.0410776
*CONN
*I REG\[15\]\$_DFF_P_:QN O *D DFFHQNx1_ASAP7_75t_R
*I _265_:A I *D INVx3_ASAP7_75t_R
*CAP
1 _007_:0 0.0205388
2 _007_:1 0.0205388
*RES
1 _007_:0 _007_:0 1e-06
2 _007_:0 REG\[15\]\$_DFF_P_:QN 0.0154
3 _007_:0 REG\[15\]\$_DFF_P_:QN 1e-06
4 _007_:1 _007_:0 0.00765868
5 _007_:1 _265_:A 0.0154
6 _007_:0 REG\[15\]\$_DFF_P_:QN 1e-06
*END

*D_NET _008_ 0.146111
*CONN
*I REG\[16\]\$_DFF_P_:QN O *D DFFHQNx1_ASAP7_75t_R
*I _266_:A I *D INVx3_ASAP7_75t_R
*CAP
1 _008_:0 0.0730556
2 _008_:1 0.0730556
*RES
1 _008_:0 _008_:1 0.0272416
2 _008_:0 _266_:A 0.0154
3 _008_:1 REG\[16\]\$_DFF_P_:QN 0.0154
4 _008_:1 _008_:1 1e-06
5 _008_:1 REG\[16\]\$_DFF_P_:QN 1e-06
6 _008_:1 REG\[16\]\$_DFF_P_:QN 1e-06
*END

*D_NET _009_ 0.115953
*CONN
*I REG\[17\]\$_DFF_P_:QN O *D DFFHQNx1_ASAP7_75t_R
*I _267_:A I *D INVx3_ASAP7_75t_R
*CAP
1 _009_:0 0.0579765
2 _009_:1 0.0579765
*RES
1 _009_:0 _009_:0 1e-06
2 _009_:0 REG\[17\]\$_DFF_P_:QN 0.0154
3 _009_:0 REG\[17\]\$_DFF_P_:QN 1e-06
4 _009_:1 _009_:0 0.0216188
5 _009_:1 _267_:A 0.0154
6 _009_:0 REG\[17\]\$_DFF_P_:QN 1e-06
*END

*D_NET _010_ 0.0129992
*CONN
*I REG\[18\]\$_DFF_P_:QN O *D DFFHQNx1_ASAP7_75t_R
*I _268_:A I *D INVx3_ASAP7_75t_R
*CAP
1 _010_:0 0.00649961
2 _010_:1 0.00649961
*RES
1 _010_:0 _010_:0 1e-06
2 _010_:0 REG\[18\]\$_DFF_P_:QN 0.0154
3 _010_:0 REG\[18\]\$_DFF_P_:QN 1e-06
4 _010_:1 _010_:0 0.00242363
5 _010_:1 _268_:A 0.0154
6 _010_:0 REG\[18\]\$_DFF_P_:QN 1e-06
*END

*D_NET _011_ 0.0129992
*CONN
*I REG\[19\]\$_DFF_P_:QN O *D DFFHQNx1_ASAP7_75t_R
*I _269_:A I *D INVx3_ASAP7_75t_R
*CAP
1 _011_:0 0.00649961
2 _011_:1 0.00649961
*RES
1 _011_:0 _011_:0 1e-06
2 _011_:0 REG\[19\]\$_DFF_P_:QN 0.0154
3 _011_:0 REG\[19\]\$_DFF_P_:QN 1e-06
4 _011_:1 _011_:0 0.00242363
5 _011_:1 _269_:A 0.0154
6 _011_:0 REG\[19\]\$_DFF_P_:QN 1e-06
*END

*D_NET _012_ 0.0993141
*CONN
*I REG\[1\]\$_DFF_P_:QN O *D DFFHQNx1_ASAP7_75t_R
*I _270_:A I *D INVx3_ASAP7_75t_R
*CAP
1 _012_:0 0.049657
2 _012_:1 0.049657
*RES
1 _012_:0 _012_:1 0.0185166
2 _012_:0 _270_:A 0.0154
3 _012_:1 REG\[1\]\$_DFF_P_:QN 0.0154
4 _012_:1 _012_:1 1e-06
5 _012_:1 REG\[1\]\$_DFF_P_:QN 1e-06
6 _012_:1 REG\[1\]\$_DFF_P_:QN 1e-06
*END

*D_NET _013_ 0.0129992
*CONN
*I REG\[20\]\$_DFF_P_:QN O *D DFFHQNx1_ASAP7_75t_R
*I _271_:A I *D INVx3_ASAP7_75t_R
*CAP
1 _013_:0 0.00649961
2 _013_:1 0.00649961
*RES
1 _013_:0 _013_:0 1e-06
2 _013_:0 REG\[20\]\$_DFF_P_:QN 0.0154
3 _013_:0 REG\[20\]\$_DFF_P_:QN 1e-06
4 _013_:1 _013_:0 0.00242363
5 _013_:1 _271_:A 0.0154
6 _013_:0 REG\[20\]\$_DFF_P_:QN 1e-06
*END

*D_NET _014_ 0.249065
*CONN
*I REG\[21\]\$_DFF_P_:QN O *D DFFHQNx1_ASAP7_75t_R
*I _272_:A I *D INVx3_ASAP7_75t_R
*CAP
1 _014_:0 0.124533
2 _014_:1 0.124533
*RES
1 _014_:0 _014_:1 0.0464368
2 _014_:0 _272_:A 0.0154
3 _014_:1 REG\[21\]\$_DFF_P_:QN 0.0154
4 _014_:1 _014_:1 1e-06
5 _014_:1 REG\[21\]\$_DFF_P_:QN 1e-06
6 _014_:1 REG\[21\]\$_DFF_P_:QN 1e-06
*END

*D_NET _015_ 0.0972342
*CONN
*I REG\[22\]\$_DFF_P_:QN O *D DFFHQNx1_ASAP7_75t_R
*I _273_:A I *D INVx3_ASAP7_75t_R
*CAP
1 _015_:0 0.0486171
2 _015_:1 0.0486171
*RES
1 _015_:0 _015_:0 1e-06
2 _015_:0 REG\[22\]\$_DFF_P_:QN 0.0154
3 _015_:0 REG\[22\]\$_DFF_P_:QN 1e-06
4 _015_:1 _015_:0 0.0181288
5 _015_:1 _273_:A 0.0154
6 _015_:0 REG\[22\]\$_DFF_P_:QN 1e-06
*END

*D_NET _016_ 0.0525169
*CONN
*I REG\[23\]\$_DFF_P_:QN O *D DFFHQNx1_ASAP7_75t_R
*I _274_:A I *D INVx3_ASAP7_75t_R
*CAP
1 _016_:0 0.0262584
2 _016_:1 0.0262584
*RES
1 _016_:0 _016_:1 0.00979148
2 _016_:0 _274_:A 0.0154
3 _016_:1 REG\[23\]\$_DFF_P_:QN 0.0154
4 _016_:1 _016_:1 1e-06
5 _016_:1 REG\[23\]\$_DFF_P_:QN 1e-06
6 _016_:1 REG\[23\]\$_DFF_P_:QN 1e-06
*END

*D_NET _017_ 0.0525169
*CONN
*I REG\[24\]\$_DFF_P_:QN O *D DFFHQNx1_ASAP7_75t_R
*I _275_:A I *D INVx3_ASAP7_75t_R
*CAP
1 _017_:0 0.0262584
2 _017_:1 0.0262584
*RES
1 _017_:0 _017_:1 0.00979148
2 _017_:0 _275_:A 0.0154
3 _017_:1 REG\[24\]\$_DFF_P_:QN 0.0154
4 _017_:1 _017_:1 1e-06
5 _017_:1 REG\[24\]\$_DFF_P_:QN 1e-06
6 _017_:1 REG\[24\]\$_DFF_P_:QN 1e-06
*END

*D_NET _018_ 0.108674
*CONN
*I REG\[25\]\$_DFF_P_:QN O *D DFFHQNx1_ASAP7_75t_R
*I _276_:A I *D INVx3_ASAP7_75t_R
*CAP
1 _018_:0 0.0543368
2 _018_:1 0.0543368
*RES
1 _018_:0 _018_:1 0.0202616
2 _018_:0 _276_:A 0.0154
3 _018_:1 REG\[25\]\$_DFF_P_:QN 0.0154
4 _018_:1 _018_:1 1e-06
5 _018_:1 REG\[25\]\$_DFF_P_:QN 1e-06
6 _018_:1 REG\[25\]\$_DFF_P_:QN 1e-06
*END

*D_NET _019_ 0.144031
*CONN
*I REG\[26\]\$_DFF_P_:QN O *D DFFHQNx1_ASAP7_75t_R
*I _277_:A I *D INVx3_ASAP7_75t_R
*CAP
1 _019_:0 0.0720157
2 _019_:1 0.0720157
*RES
1 _019_:0 _019_:0 1e-06
2 _019_:0 REG\[26\]\$_DFF_P_:QN 0.0154
3 _019_:0 REG\[26\]\$_DFF_P_:QN 1e-06
4 _019_:1 _019_:0 0.0268538
5 _019_:1 _277_:A 0.0154
6 _019_:0 REG\[26\]\$_DFF_P_:QN 1e-06
*END

*D_NET _020_ 0.0129992
*CONN
*I REG\[27\]\$_DFF_P_:QN O *D DFFHQNx1_ASAP7_75t_R
*I _278_:A I *D INVx3_ASAP7_75t_R
*CAP
1 _020_:0 0.00649961
2 _020_:1 0.00649961
*RES
1 _020_:0 _020_:0 1e-06
2 _020_:0 REG\[27\]\$_DFF_P_:QN 0.0154
3 _020_:0 REG\[27\]\$_DFF_P_:QN 1e-06
4 _020_:1 _020_:0 0.00242363
5 _020_:1 _278_:A 0.0154
6 _020_:0 REG\[27\]\$_DFF_P_:QN 1e-06
*END

*D_NET _021_ 0.0129992
*CONN
*I REG\[28\]\$_DFF_P_:QN O *D DFFHQNx1_ASAP7_75t_R
*I _279_:A I *D INVx3_ASAP7_75t_R
*CAP
1 _021_:0 0.00649961
2 _021_:1 0.00649961
*RES
1 _021_:0 _021_:0 1e-06
2 _021_:0 REG\[28\]\$_DFF_P_:QN 0.0154
3 _021_:0 REG\[28\]\$_DFF_P_:QN 1e-06
4 _021_:1 _021_:0 0.00242363
5 _021_:1 _279_:A 0.0154
6 _021_:0 REG\[28\]\$_DFF_P_:QN 1e-06
*END

*D_NET _022_ 0.0618763
*CONN
*I REG\[29\]\$_DFF_P_:QN O *D DFFHQNx1_ASAP7_75t_R
*I _280_:A I *D INVx3_ASAP7_75t_R
*CAP
1 _022_:0 0.0309382
2 _022_:1 0.0309382
*RES
1 _022_:0 _022_:1 0.0115365
2 _022_:0 _280_:A 0.0154
3 _022_:1 REG\[29\]\$_DFF_P_:QN 0.0154
4 _022_:1 _022_:1 1e-06
5 _022_:1 REG\[29\]\$_DFF_P_:QN 1e-06
6 _022_:1 REG\[29\]\$_DFF_P_:QN 1e-06
*END

*D_NET _023_ 0.436254
*CONN
*I REG\[2\]\$_DFF_P_:QN O *D DFFHQNx1_ASAP7_75t_R
*I _281_:A I *D INVx3_ASAP7_75t_R
*CAP
1 _023_:0 0.218127
2 _023_:1 0.218127
*RES
1 _023_:0 _023_:1 0.0813371
2 _023_:0 _281_:A 0.0154
3 _023_:1 REG\[2\]\$_DFF_P_:QN 0.0154
4 _023_:1 _023_:1 1e-06
5 _023_:1 REG\[2\]\$_DFF_P_:QN 1e-06
6 _023_:1 REG\[2\]\$_DFF_P_:QN 1e-06
*END

*D_NET _024_ 0.108674
*CONN
*I REG\[30\]\$_DFF_P_:QN O *D DFFHQNx1_ASAP7_75t_R
*I _282_:A I *D INVx3_ASAP7_75t_R
*CAP
1 _024_:0 0.0543368