*SPEF "ieee 1481-1999"
*DESIGN "multi_sink"
*DATE "11:11:11 Fri 11 11, 1111"
*VENDOR "The OpenROAD Project"
*PROGRAM "OpenROAD"
*VERSION "1.0"
*DESIGN_FLOW "NAME_SCOPE LOCAL" "PIN_CAP NONE"
*DIVIDER /
*DELIMITER :
*BUS_DELIMITER []
*T_UNIT 1 NS
*C_UNIT 1 FF
*R_UNIT 1 KOHM
*L_UNIT 1 HENRY

*PORTS
clk I

*D_NET clk 1.05255
*CONN
*P clk I
*I clkbuf_0_clk:A I *D CLKBUF_X3
*CAP
1 clk:0 0.526277
2 clk:1 0.526277
*RES
1 clk:0 clk:0 1e-06
2 clk clk:2 1e-06
3 clk:2 clk:3 1e-06
4 clk:3 clk:4 1e-06
5 clk:4 clk:0 1e-06
6 clk:1 clk:0 0.0216626
7 clkbuf_0_clk:A clk:6 1e-06
8 clk:6 clk:7 1e-06
9 clk:7 clk:8 1e-06
10 clk:8 clk:9 1e-06
11 clk:9 clk:1 1e-06
*END

*D_NET gclk1 0.174422
*CONN
*I gclk1:GCK O *D CLKGATE_X1
*I clkbuf_0_gclk1:A I *D CLKBUF_X3
*CAP
1 gclk1:0 0.0872111
2 gclk1:1 0.0872111
*RES
1 gclk1:0 gclk1:1 0.00358978
2 clkbuf_0_gclk1:A gclk1:2 1e-06
3 gclk1:2 gclk1:3 1e-06
4 gclk1:3 gclk1:4 1e-06
5 gclk1:4 gclk1:5 1e-06
6 gclk1:5 gclk1:0 1e-06
7 gclk1:GCK gclk1:7 1e-06
8 gclk1:7 gclk1:8 1e-06
9 gclk1:8 gclk1:9 1e-06
10 gclk1:9 gclk1:10 1e-06
11 gclk1:10 gclk1:1 1e-06
12 gclk1:1 gclk1:1 1e-06
*END

*D_NET gclk3 0.164533
*CONN
*I gclk3:GCK O *D CLKGATE_X1
*I clkbuf_0_gclk3:A I *D CLKBUF_X3
*CAP
1 gclk3:0 0.0822667
2 gclk3:1 0.0822667
*RES
1 gclk3:0 gclk3:1 0.00338626
2 clkbuf_0_gclk3:A gclk3:2 1e-06
3 gclk3:2 gclk3:3 1e-06
4 gclk3:3 gclk3:4 1e-06
5 gclk3:4 gclk3:5 1e-06
6 gclk3:5 gclk3:0 1e-06
7 gclk3:GCK gclk3:7 1e-06
8 gclk3:7 gclk3:8 1e-06
9 gclk3:8 gclk3:9 1e-06
10 gclk3:9 gclk3:10 1e-06
11 gclk3:10 gclk3:1 1e-06
12 gclk3:1 gclk3:1 1e-06
*END

*D_NET gclk4 0.576797
*CONN
*I gclk4:GCK O *D CLKGATE_X1
*I clkbuf_0_gclk4:A I *D CLKBUF_X3
*I delaybuf_0_core:A I *D CLKBUF_X3
*CAP
1 gclk4:0 0.0193944
2 gclk4:1 0.231511
3 gclk4:2 0.0374935
4 gclk4:3 0.288399
*RES
1 gclk4:0 gclk4:3 0.000798313
2 delaybuf_0_core:A gclk4:4 1e-06
3 gclk4:4 gclk4:5 1e-06
4 gclk4:5 gclk4:6 1e-06
5 gclk4:6 gclk4:7 1e-06
6 gclk4:7 gclk4:0 1e-06
7 gclk4:1 gclk4:3 0.00952944
8 clkbuf_0_gclk4:A gclk4:9 1e-06
9 gclk4:9 gclk4:10 1e-06
10 gclk4:10 gclk4:11 1e-06
11 gclk4:11 gclk4:12 1e-06
12 gclk4:12 gclk4:1 1e-06
13 gclk4:2 gclk4:2 1e-06
14 gclk4:GCK gclk4:14 1e-06
15 gclk4:14 gclk4:15 1e-06
16 gclk4:15 gclk4:16 1e-06
17 gclk4:16 gclk4:17 1e-06
18 gclk4:17 gclk4:2 1e-06
19 gclk4:3 gclk4:2 0.0015433
*END

*D_NET h1/gclk2 0.16457
*CONN
*I h1/gclk2:GCK O *D CLKGATE_X1
*I h1/clkbuf_0_h1\/gclk2:A I *D CLKBUF_X3
*CAP
1 h1/gclk2:0 0.0822849
2 h1/gclk2:1 0.0822849
*RES
1 h1/gclk2:0 h1/gclk2:1 0.00338701
2 h1/clkbuf_0_h1\/gclk2:A h1/gclk2:2 1e-06
3 h1/gclk2:2 h1/gclk2:3 1e-06
4 h1/gclk2:3 h1/gclk2:4 1e-06
5 h1/gclk2:4 h1/gclk2:5 1e-06
6 h1/gclk2:5 h1/gclk2:0 1e-06
7 h1/gclk2:GCK h1/gclk2:7 1e-06
8 h1/gclk2:7 h1/gclk2:8 1e-06
9 h1/gclk2:8 h1/gclk2:9 1e-06
10 h1/gclk2:9 h1/gclk2:10 1e-06
11 h1/gclk2:10 h1/gclk2:1 1e-06
12 h1/gclk2:1 h1/gclk2:1 1e-06
*END

*D_NET h1/gclk5 0.0788184
*CONN
*I h1/gclk5:GCK O *D CLKGATE_X1
*I h1/clkbuf_0_h1\/gclk5:A I *D CLKBUF_X3
*CAP
1 h1/gclk5:0 0.0394092
2 h1/gclk5:1 0.0394092
*RES
1 h1/gclk5:0 h1/gclk5:1 0.00162216
2 h1/clkbuf_0_h1\/gclk5:A h1/gclk5:2 1e-06
3 h1/gclk5:2 h1/gclk5:3 1e-06
4 h1/gclk5:3 h1/gclk5:4 1e-06
5 h1/gclk5:4 h1/gclk5:5 1e-06
6 h1/gclk5:5 h1/gclk5:0 1e-06
7 h1/gclk5:GCK h1/gclk5:7 1e-06
8 h1/gclk5:7 h1/gclk5:8 1e-06
9 h1/gclk5:8 h1/gclk5:9 1e-06
10 h1/gclk5:9 h1/gclk5:10 1e-06
11 h1/gclk5:10 h1/gclk5:1 1e-06
12 h1/gclk5:1 h1/gclk5:1 1e-06
*END

*D_NET gclk4_regs 0.038132
*CONN
*I clkbuf_regs_0_core:Z O *D CLKBUF_X3
*I clkbuf_0_gclk4_regs:A I *D CLKBUF_X3
*CAP
1 gclk4_regs:0 0.019066
2 gclk4_regs:1 0.019066
*RES
1 gclk4_regs:0 gclk4_regs:1 0.000784795
2 clkbuf_0_gclk4_regs:A gclk4_regs:2 1e-06
3 gclk4_regs:2 gclk4_regs:3 1e-06
4 gclk4_regs:3 gclk4_regs:4 1e-06
5 gclk4_regs:4 gclk4_regs:5 1e-06
6 gclk4_regs:5 gclk4_regs:0 1e-06
7 clkbuf_regs_0_core:Z gclk4_regs:7 1e-06
8 gclk4_regs:7 gclk4_regs:8 1e-06
9 gclk4_regs:8 gclk4_regs:9 1e-06
10 gclk4_regs:9 gclk4_regs:10 1e-06
11 gclk4_regs:10 gclk4_regs:1 1e-06
12 gclk4_regs:1 gclk4_regs:1 1e-06
*END

*D_NET clknet_0_clk 0.721225
*CONN
*I clkbuf_0_clk:Z O *D CLKBUF_X3
*I clkbuf_1_0__f_clk:A I *D CLKBUF_X3
*I delaybuf_4_core:A I *D CLKBUF_X3
*CAP
1 clknet_0_clk:0 0.260082
2 clknet_0_clk:1 0.0861164
3 clknet_0_clk:2 0.0144135
4 clknet_0_clk:3 0.360612
*RES
1 clknet_0_clk:0 clknet_0_clk:3 0.0107055
2 clkbuf_1_0__f_clk:A clknet_0_clk:4 1e-06
3 clknet_0_clk:4 clknet_0_clk:5 1e-06
4 clknet_0_clk:5 clknet_0_clk:6 1e-06
5 clknet_0_clk:6 clknet_0_clk:7 1e-06
6 clknet_0_clk:7 clknet_0_clk:0 1e-06
7 clknet_0_clk:1 clknet_0_clk:3 0.00354472
8 delaybuf_4_core:A clknet_0_clk:9 1e-06
9 clknet_0_clk:9 clknet_0_clk:10 1e-06
10 clknet_0_clk:10 clknet_0_clk:11 1e-06
11 clknet_0_clk:11 clknet_0_clk:12 1e-06
12 clknet_0_clk:12 clknet_0_clk:1 1e-06
13 clknet_0_clk:2 clknet_0_clk:2 1e-06
14 clkbuf_0_clk:Z clknet_0_clk:14 1e-06
15 clknet_0_clk:14 clknet_0_clk:15 1e-06
16 clknet_0_clk:15 clknet_0_clk:16 1e-06
17 clknet_0_clk:16 clknet_0_clk:17 1e-06
18 clknet_0_clk:17 clknet_0_clk:2 1e-06
19 clknet_0_clk:3 clknet_0_clk:2 0.00059329
*END

*D_NET clknet_1_0__leaf_clk_1 0.543592
*CONN
*I gclk4:CK I *D CLKGATE_X1
*I clkbuf_1_0__f_clk:Z O *D CLKBUF_X3
*I h1/delaybuf_2_core:A I *D CLKBUF_X3
*CAP
1 clknet_1_0__leaf_clk_1:0 0.0257619
2 clknet_1_0__leaf_clk_1:1 0.0488601
3 clknet_1_0__leaf_clk_1:2 0.197174
4 clknet_1_0__leaf_clk_1:3 0.271796
*RES
1 clknet_1_0__leaf_clk_1:0 clknet_1_0__leaf_clk_1:3 0.00106041
2 h1/delaybuf_2_core:A clknet_1_0__leaf_clk_1:4 1e-06
3 clknet_1_0__leaf_clk_1:4 clknet_1_0__leaf_clk_1:5 1e-06
4 clknet_1_0__leaf_clk_1:5 clknet_1_0__leaf_clk_1:6 1e-06
5 clknet_1_0__leaf_clk_1:6 clknet_1_0__leaf_clk_1:7 1e-06
6 clknet_1_0__leaf_clk_1:7 clknet_1_0__leaf_clk_1:0 1e-06
7 clknet_1_0__leaf_clk_1:1 clknet_1_0__leaf_clk_1:1 1e-06
8 clkbuf_1_0__f_clk:Z clknet_1_0__leaf_clk_1:9 1e-06
9 clknet_1_0__leaf_clk_1:9 clknet_1_0__leaf_clk_1:10 1e-06
10 clknet_1_0__leaf_clk_1:10 clknet_1_0__leaf_clk_1:11 1e-06
11 clknet_1_0__leaf_clk_1:11 clknet_1_0__leaf_clk_1:12 1e-06
12 clknet_1_0__leaf_clk_1:12 clknet_1_0__leaf_clk_1:1 1e-06
13 clknet_1_0__leaf_clk_1:2 clknet_1_0__leaf_clk_1:3 0.00811606
14 gclk4:CK clknet_1_0__leaf_clk_1:14 1e-06
15 clknet_1_0__leaf_clk_1:14 clknet_1_0__leaf_clk_1:15 1e-06
16 clknet_1_0__leaf_clk_1:15 clknet_1_0__leaf_clk_1:16 1e-06
17 clknet_1_0__leaf_clk_1:16 clknet_1_0__leaf_clk_1:17 1e-06
18 clknet_1_0__leaf_clk_1:17 clknet_1_0__leaf_clk_1:2 1e-06
19 clknet_1_0__leaf_clk_1:3 clknet_1_0__leaf_clk_1:1 0.00201118
*END

*D_NET clknet_1_1__leaf_clk_1 0.451199
*CONN
*I gclk1:CK I *D CLKGATE_X1
*I h1/gclk2:CK I *D CLKGATE_X1
*I clkbuf_1_1__f_clk:Z O *D CLKBUF_X3
*CAP
1 clknet_1_1__leaf_clk_1:0 0.130543
2 clknet_1_1__leaf_clk_1:1 0.0950564
3 clknet_1_1__leaf_clk_1:2 0.225599
*RES
1 clknet_1_1__leaf_clk_1:0 clknet_1_1__leaf_clk_1:0 1e-06
2 clkbuf_1_1__f_clk:Z clknet_1_1__leaf_clk_1:3 1e-06
3 clknet_1_1__leaf_clk_1:3 clknet_1_1__leaf_clk_1:4 1e-06
4 clknet_1_1__leaf_clk_1:4 clknet_1_1__leaf_clk_1:5 1e-06
5 clknet_1_1__leaf_clk_1:5 clknet_1_1__leaf_clk_1:6 1e-06
6 clknet_1_1__leaf_clk_1:6 clknet_1_1__leaf_clk_1:0 1e-06
7 clknet_1_1__leaf_clk_1:1 clknet_1_1__leaf_clk_1:2 0.00391271
8 h1/gclk2:CK clknet_1_1__leaf_clk_1:8 1e-06
9 clknet_1_1__leaf_clk_1:8 clknet_1_1__leaf_clk_1:9 1e-06
10 clknet_1_1__leaf_clk_1:9 clknet_1_1__leaf_clk_1:10 1e-06
11 clknet_1_1__leaf_clk_1:10 clknet_1_1__leaf_clk_1:11 1e-06
12 clknet_1_1__leaf_clk_1:11 clknet_1_1__leaf_clk_1:1 1e-06
13 gclk1:CK clknet_1_1__leaf_clk_1:13 1e-06
14 clknet_1_1__leaf_clk_1:13 clknet_1_1__leaf_clk_1:14 1e-06
15 clknet_1_1__leaf_clk_1:14 clknet_1_1__leaf_clk_1:15 1e-06
16 clknet_1_1__leaf_clk_1:15 clknet_1_1__leaf_clk_1:16 1e-06
17 clknet_1_1__leaf_clk_1:16 clknet_1_1__leaf_clk_1:2 1e-06
18 clknet_1_1__leaf_clk_1:2 clknet_1_1__leaf_clk_1:0 0.0053734
*END

*D_NET clknet_0_h1\/gclk5 7.11161
*CONN
*I h1/clkbuf_0_h1\/gclk5:Z O *D CLKBUF_X3
*I h1/clkbuf_4_0__f_h1\/gclk5:A I *D CLKBUF_X3
*I h1/clkbuf_4_1__f_h1\/gclk5:A I *D CLKBUF_X3
*I h1/clkbuf_4_2__f_h1\/gclk5:A I *D CLKBUF_X3
*I h1/clkbuf_4_3__f_h1\/gclk5:A I *D CLKBUF_X3
*I h1/clkbuf_4_4__f_h1\/gclk5:A I *D CLKBUF_X3
*I h1/clkbuf_4_5__f_h1\/gclk5:A I *D CLKBUF_X3
*I h1/clkbuf_4_6__f_h1\/gclk5:A I *D CLKBUF_X3
*I h1/clkbuf_4_7__f_h1\/gclk5:A I *D CLKBUF_X3
*I h1/clkbuf_4_8__f_h1\/gclk5:A I *D CLKBUF_X3
*I h1/clkbuf_4_9__f_h1\/gclk5:A I *D CLKBUF_X3
*I h1/clkbuf_4_10__f_h1\/gclk5:A I *D CLKBUF_X3
*I h1/clkbuf_4_11__f_h1\/gclk5:A I *D CLKBUF_X3
*I h1/clkbuf_4_12__f_h1\/gclk5:A I *D CLKBUF_X3
*I h1/clkbuf_4_13__f_h1\/gclk5:A I *D CLKBUF_X3
*I h1/clkbuf_4_14__f_h1\/gclk5:A I *D CLKBUF_X3
*I h1/clkbuf_4_15__f_h1\/gclk5:A I *D CLKBUF_X3
*CAP
1 clknet_0_h1\/gclk5:0 0.0166394
2 clknet_0_h1\/gclk5:1 0.0166394
3 clknet_0_h1\/gclk5:2 0.394001
4 clknet_0_h1\/gclk5:3 0.0104544
5 clknet_0_h1\/gclk5:4 0.027331
6 clknet_0_h1\/gclk5:5 0.154645
7 clknet_0_h1\/gclk5:6 0.00452476
8 clknet_0_h1\/gclk5:7 0.287559
9 clknet_0_h1\/gclk5:8 0.610095
10 clknet_0_h1\/gclk5:9 0.00169678
11 clknet_0_h1\/gclk5:10 0.230599
12 clknet_0_h1\/gclk5:11 0.0439887
13 clknet_0_h1\/gclk5:12 0.0114579
14 clknet_0_h1\/gclk5:13 0.579935
15 clknet_0_h1\/gclk5:14 0.696412
16 clknet_0_h1\/gclk5:15 0.00541876
17 clknet_0_h1\/gclk5:16 0.00541876
18 clknet_0_h1\/gclk5:17 0.912487
19 clknet_0_h1\/gclk5:18 0.537844
20 clknet_0_h1\/gclk5:19 0.517045
21 clknet_0_h1\/gclk5:20 0.532225
22 clknet_0_h1\/gclk5:21 0.504675
23 clknet_0_h1\/gclk5:22 0.414672
24 clknet_0_h1\/gclk5:23 0.595845
*RES
1 clknet_0_h1\/gclk5:0 clknet_0_h1\/gclk5:19 0.000684912
2 h1/clkbuf_4_4__f_h1\/gclk5:A clknet_0_h1\/gclk5:24 1e-06
3 clknet_0_h1\/gclk5:24 clknet_0_h1\/gclk5:25 1e-06
4 clknet_0_h1\/gclk5:25 clknet_0_h1\/gclk5:26 1e-06
5 clknet_0_h1\/gclk5:26 clknet_0_h1\/gclk5:27 1e-06
6 clknet_0_h1\/gclk5:27 clknet_0_h1\/gclk5:0 1e-06
7 clknet_0_h1\/gclk5:1 clknet_0_h1\/gclk5:19 0.000684912
8 h1/clkbuf_4_5__f_h1\/gclk5:A clknet_0_h1\/gclk5:29 1e-06
9 clknet_0_h1\/gclk5:29 clknet_0_h1\/gclk5:30 1e-06
10 clknet_0_h1\/gclk5:30 clknet_0_h1\/gclk5:31 1e-06
11 clknet_0_h1\/gclk5:31 clknet_0_h1\/gclk5:32 1e-06
12 clknet_0_h1\/gclk5:32 clknet_0_h1\/gclk5:1 1e-06
13 clknet_0_h1\/gclk5:2 clknet_0_h1\/gclk5:17 0.0157875
14 h1/clkbuf_4_7__f_h1\/gclk5:A clknet_0_h1\/gclk5:34 1e-06
15 clknet_0_h1\/gclk5:34 clknet_0_h1\/gclk5:35 1e-06
16 clknet_0_h1\/gclk5:35 clknet_0_h1\/gclk5:36 1e-06
17 clknet_0_h1\/gclk5:36 clknet_0_h1\/gclk5:37 1e-06
18 clknet_0_h1\/gclk5:37 clknet_0_h1\/gclk5:2 1e-06
19 clknet_0_h1\/gclk5:3 clknet_0_h1\/gclk5:21 0.000430323
20 h1/clkbuf_4_6__f_h1\/gclk5:A clknet_0_h1\/gclk5:39 1e-06
21 clknet_0_h1\/gclk5:39 clknet_0_h1\/gclk5:40 1e-06
22 clknet_0_h1\/gclk5:40 clknet_0_h1\/gclk5:41 1e-06
23 clknet_0_h1\/gclk5:41 clknet_0_h1\/gclk5:42 1e-06
24 clknet_0_h1\/gclk5:42 clknet_0_h1\/gclk5:3 1e-06
25 clknet_0_h1\/gclk5:4 clknet_0_h1\/gclk5:5 0.001125
26 h1/clkbuf_4_0__f_h1\/gclk5:A clknet_0_h1\/gclk5:44 1e-06
27 clknet_0_h1\/gclk5:44 clknet_0_h1\/gclk5:45 1e-06
28 clknet_0_h1\/gclk5:45 clknet_0_h1\/gclk5:46 1e-06
29 clknet_0_h1\/gclk5:46 clknet_0_h1\/gclk5:47 1e-06
30 clknet_0_h1\/gclk5:47 clknet_0_h1\/gclk5:4 1e-06
31 h1/clkbuf_4_1__f_h1\/gclk5:A clknet_0_h1\/gclk5:49 1e-06
32 clknet_0_h1\/gclk5:49 clknet_0_h1\/gclk5:50 1e-06
33 clknet_0_h1\/gclk5:50 clknet_0_h1\/gclk5:51 1e-06
34 clknet_0_h1\/gclk5:51 clknet_0_h1\/gclk5:52 1e-06
35 clknet_0_h1\/gclk5:52 clknet_0_h1\/gclk5:5 1e-06
36 clknet_0_h1\/gclk5:5 clknet_0_h1\/gclk5:17 0.00524048
37 clknet_0_h1\/gclk5:6 clknet_0_h1\/gclk5:7 0.000186248
38 h1/clkbuf_4_2__f_h1\/gclk5:A clknet_0_h1\/gclk5:54 1e-06
39 clknet_0_h1\/gclk5:54 clknet_0_h1\/gclk5:55 1e-06
40 clknet_0_h1\/gclk5:55 clknet_0_h1\/gclk5:56 1e-06
41 clknet_0_h1\/gclk5:56 clknet_0_h1\/gclk5:57 1e-06
42 clknet_0_h1\/gclk5:57 clknet_0_h1\/gclk5:6 1e-06
43 h1/clkbuf_4_3__f_h1\/gclk5:A clknet_0_h1\/gclk5:59 1e-06
44 clknet_0_h1\/gclk5:59 clknet_0_h1\/gclk5:60 1e-06
45 clknet_0_h1\/gclk5:60 clknet_0_h1\/gclk5:61 1e-06
46 clknet_0_h1\/gclk5:61 clknet_0_h1\/gclk5:62 1e-06
47 clknet_0_h1\/gclk5:62 clknet_0_h1\/gclk5:7 1e-06
48 clknet_0_h1\/gclk5:7 clknet_0_h1\/gclk5:23 0.0116503
49 clknet_0_h1\/gclk5:8 clknet_0_h1\/gclk5:8 1e-06
50 h1/clkbuf_0_h1\/gclk5:Z clknet_0_h1\/gclk5:64 1e-06
51 clknet_0_h1\/gclk5:64 clknet_0_h1\/gclk5:65 1e-06
52 clknet_0_h1\/gclk5:65 clknet_0_h1\/gclk5:66 1e-06
53 clknet_0_h1\/gclk5:66 clknet_0_h1\/gclk5:67 1e-06
54 clknet_0_h1\/gclk5:67 clknet_0_h1\/gclk5:8 1e-06
55 clknet_0_h1\/gclk5:9 clknet_0_h1\/gclk5:23 6.9843e-05
56 h1/clkbuf_4_8__f_h1\/gclk5:A clknet_0_h1\/gclk5:69 1e-06
57 clknet_0_h1\/gclk5:69 clknet_0_h1\/gclk5:70 1e-06
58 clknet_0_h1\/gclk5:70 clknet_0_h1\/gclk5:71 1e-06
59 clknet_0_h1\/gclk5:71 clknet_0_h1\/gclk5:72 1e-06
60 clknet_0_h1\/gclk5:72 clknet_0_h1\/gclk5:9 1e-06
61 clknet_0_h1\/gclk5:10 clknet_0_h1\/gclk5:20 0.000520443
62 h1/clkbuf_4_9__f_h1\/gclk5:A clknet_0_h1\/gclk5:74 1e-06
63 clknet_0_h1\/gclk5:74 clknet_0_h1\/gclk5:75 1e-06
64 clknet_0_h1\/gclk5:75 clknet_0_h1\/gclk5:76 1e-06
65 clknet_0_h1\/gclk5:76 clknet_0_h1\/gclk5:77 1e-06
66 clknet_0_h1\/gclk5:77 clknet_0_h1\/gclk5:10 1e-06
67 clknet_0_h1\/gclk5:11 clknet_0_h1\/gclk5:18 0.00133903
68 h1/clkbuf_4_10__f_h1\/gclk5:A clknet_0_h1\/gclk5:79 1e-06
69 clknet_0_h1\/gclk5:79 clknet_0_h1\/gclk5:80 1e-06
70 clknet_0_h1\/gclk5:80 clknet_0_h1\/gclk5:81 1e-06
71 clknet_0_h1\/gclk5:81 clknet_0_h1\/gclk5:82 1e-06
72 clknet_0_h1\/gclk5:82 clknet_0_h1\/gclk5:11 1e-06
73 clknet_0_h1\/gclk5:12 clknet_0_h1\/gclk5:11 0.000471628
74 h1/clkbuf_4_11__f_h1\/gclk5:A clknet_0_h1\/gclk5:84 1e-06
75 clknet_0_h1\/gclk5:84 clknet_0_h1\/gclk5:85 1e-06
76 clknet_0_h1\/gclk5:85 clknet_0_h1\/gclk5:86 1e-06
77 clknet_0_h1\/gclk5:86 clknet_0_h1\/gclk5:87 1e-06
78 clknet_0_h1\/gclk5:87 clknet_0_h1\/gclk5:12 1e-06
79 clknet_0_h1\/gclk5:13 clknet_0_h1\/gclk5:18 0.0118283
80 h1/clkbuf_4_12__f_h1\/gclk5:A clknet_0_h1\/gclk5:89 1e-06
81 clknet_0_h1\/gclk5:89 clknet_0_h1\/gclk5:90 1e-06
82 clknet_0_h1\/gclk5:90 clknet_0_h1\/gclk5:91 1e-06
83 clknet_0_h1\/gclk5:91 clknet_0_h1\/gclk5:92 1e-06
84 clknet_0_h1\/gclk5:92 clknet_0_h1\/gclk5:13 1e-06
85 clknet_0_h1\/gclk5:14 clknet_0_h1\/gclk5:13 0.012043
86 h1/clkbuf_4_13__f_h1\/gclk5:A clknet_0_h1\/gclk5:94 1e-06
87 clknet_0_h1\/gclk5:94 clknet_0_h1\/gclk5:95 1e-06
88 clknet_0_h1\/gclk5:95 clknet_0_h1\/gclk5:96 1e-06
89 clknet_0_h1\/gclk5:96 clknet_0_h1\/gclk5:97 1e-06
90 clknet_0_h1\/gclk5:97 clknet_0_h1\/gclk5:14 1e-06
91 clknet_0_h1\/gclk5:15 clknet_0_h1\/gclk5:22 0.000223047
92 h1/clkbuf_4_14__f_h1\/gclk5:A clknet_0_h1\/gclk5:99 1e-06
93 clknet_0_h1\/gclk5:99 clknet_0_h1\/gclk5:100 1e-06
94 clknet_0_h1\/gclk5:100 clknet_0_h1\/gclk5:101 1e-06
95 clknet_0_h1\/gclk5:101 clknet_0_h1\/gclk5:102 1e-06
96 clknet_0_h1\/gclk5:102 clknet_0_h1\/gclk5:15 1e-06
97 clknet_0_h1\/gclk5:16 clknet_0_h1\/gclk5:22 0.000223047
98 h1/clkbuf_4_15__f_h1\/gclk5:A clknet_0_h1\/gclk5:104 1e-06
99 clknet_0_h1\/gclk5:104 clknet_0_h1\/gclk5:105 1e-06
100 clknet_0_h1\/gclk5:105 clknet_0_h1\/gclk5:106 1e-06
101 clknet_0_h1\/gclk5:106 clknet_0_h1\/gclk5:107 1e-06
102 clknet_0_h1\/gclk5:107 clknet_0_h1\/gclk5:16 1e-06
103 clknet_0_h1\/gclk5:17 clknet_0_h1\/gclk5:8 0.0165318
104 clknet_0_h1\/gclk5:18 clknet_0_h1\/gclk5:10 0.00897145
105 clknet_0_h1\/gclk5:19 clknet_0_h1\/gclk5:21 0.0199128
106 clknet_0_h1\/gclk5:20 clknet_0_h1\/gclk5:8 0.00858093
107 clknet_0_h1\/gclk5:21 clknet_0_h1\/gclk5:2 0.000430323
108 clknet_0_h1\/gclk5:22 clknet_0_h1\/gclk5:14 0.0166226
109 clknet_0_h1\/gclk5:23 clknet_0_h1\/gclk5:20 0.0128061
*END

*D_NET clknet_4_0__leaf_h1\/gclk5 1.3451
*CONN
*I h1/ff10:CK I *D DFF_X1
*I h1/ff131:CK I *D DFF_X1
*I h1/ff28:CK I *D DFF_X1
*I h1/ff6:CK I *D DFF_X1
*I h1/ff64:CK I *D DFF_X1
*I h1/ff85:CK I *D DFF_X1
*I h1/clkbuf_4_0__f_h1\/gclk5:Z O *D CLKBUF_X3
*I clkload0:A I *D INV_X4
*CAP
1 clknet_4_0__leaf_h1\/gclk5:0 0.0590006
2 clknet_4_0__leaf_h1\/gclk5:1 0.0652577
3 clknet_4_0__leaf_h1\/gclk5:2 0.0989669
4 clknet_4_0__leaf_h1\/gclk5:3 0.121477
5 clknet_4_0__leaf_h1\/gclk5:4 0.0550171
6 clknet_4_0__leaf_h1\/gclk5:5 0.145096
7 clknet_4_0__leaf_h1\/gclk5:6 0.0741453
8 clknet_4_0__leaf_h1\/gclk5:7 0.11259
9 clknet_4_0__leaf_h1\/gclk5:8 0.232958
10 clknet_4_0__leaf_h1\/gclk5:9 0.165108
11 clknet_4_0__leaf_h1\/gclk5:10 0.215484
*RES
1 clknet_4_0__leaf_h1\/gclk5:0 clknet_4_0__leaf_h1\/gclk5:1 0.00561118
2 h1/ff85:CK clknet_4_0__leaf_h1\/gclk5:11 1e-06
3 clknet_4_0__leaf_h1\/gclk5:11 clknet_4_0__leaf_h1\/gclk5:0 1e-06
4 h1/ff64:CK clknet_4_0__leaf_h1\/gclk5:13 1e-06
5 clknet_4_0__leaf_h1\/gclk5:13 clknet_4_0__leaf_h1\/gclk5:1 1e-06
6 clknet_4_0__leaf_h1\/gclk5:1 clknet_4_0__leaf_h1\/gclk5:10 0.000595071
7 clknet_4_0__leaf_h1\/gclk5:2 clknet_4_0__leaf_h1\/gclk5:10 0.00941213
8 h1/ff28:CK clknet_4_0__leaf_h1\/gclk5:15 1e-06
9 clknet_4_0__leaf_h1\/gclk5:15 clknet_4_0__leaf_h1\/gclk5:2 1e-06
10 clknet_4_0__leaf_h1\/gclk5:3 clknet_4_0__leaf_h1\/gclk5:9 0.00106684
11 clkload0:A clknet_4_0__leaf_h1\/gclk5:17 1e-06
12 clknet_4_0__leaf_h1\/gclk5:17 clknet_4_0__leaf_h1\/gclk5:3 1e-06
13 clknet_4_0__leaf_h1\/gclk5:4 clknet_4_0__leaf_h1\/gclk5:8 0.00523234
14 h1/ff6:CK clknet_4_0__leaf_h1\/gclk5:19 1e-06
15 clknet_4_0__leaf_h1\/gclk5:19 clknet_4_0__leaf_h1\/gclk5:4 1e-06
16 clknet_4_0__leaf_h1\/gclk5:5 clknet_4_0__leaf_h1\/gclk5:9 0.0137992
17 h1/ff10:CK clknet_4_0__leaf_h1\/gclk5:21 1e-06
18 clknet_4_0__leaf_h1\/gclk5:21 clknet_4_0__leaf_h1\/gclk5:5 1e-06
19 clknet_4_0__leaf_h1\/gclk5:6 clknet_4_0__leaf_h1\/gclk5:6 1e-06
20 h1/clkbuf_4_0__f_h1\/gclk5:Z clknet_4_0__leaf_h1\/gclk5:23 1e-06
21 clknet_4_0__leaf_h1\/gclk5:23 clknet_4_0__leaf_h1\/gclk5:6 1e-06
22 clknet_4_0__leaf_h1\/gclk5:7 clknet_4_0__leaf_h1\/gclk5:8 0.0107077
23 h1/ff131:CK clknet_4_0__leaf_h1\/gclk5:25 1e-06
24 clknet_4_0__leaf_h1\/gclk5:25 clknet_4_0__leaf_h1\/gclk5:7 1e-06
25 clknet_4_0__leaf_h1\/gclk5:8 clknet_4_0__leaf_h1\/gclk5:6 0.00621519
26 clknet_4_0__leaf_h1\/gclk5:9 clknet_4_0__leaf_h1\/gclk5:6 0.000836316
27 clknet_4_0__leaf_h1\/gclk5:10 clknet_4_0__leaf_h1\/gclk5:3 0.0104861
*END

*D_NET clknet_4_1__leaf_h1\/gclk5 1.06528
*CONN
*I h1/ff113:CK I *D DFF_X1
*I h1/ff117:CK I *D DFF_X1
*I h1/ff135:CK I *D DFF_X1
*I h1/ff23:CK I *D DFF_X1
*I h1/ff40:CK I *D DFF_X1
*I h1/ff45:CK I *D DFF_X1
*I h1/ff80:CK I *D DFF_X1
*I h1/clkbuf_4_1__f_h1\/gclk5:Z O *D CLKBUF_X3
*I clkload1:A I *D INV_X4
*CAP
1 clknet_4_1__leaf_h1\/gclk5:0 0.121383
2 clknet_4_1__leaf_h1\/gclk5:1 0.105224
3 clknet_4_1__leaf_h1\/gclk5:2 0.164225
4 clknet_4_1__leaf_h1\/gclk5:3 0.0793314
5 clknet_4_1__leaf_h1\/gclk5:4 0.206277
6 clknet_4_1__leaf_h1\/gclk5:5 0.0590006
7 clknet_4_1__leaf_h1\/gclk5:6 0.0228674
8 clknet_4_1__leaf_h1\/gclk5:7 9.395e-05
9 clknet_4_1__leaf_h1\/gclk5:8 0.118847
10 clknet_4_1__leaf_h1\/gclk5:9 0.0491734
11 clknet_4_1__leaf_h1\/gclk5:10 0.138858
*RES
1 clknet_4_1__leaf_h1\/gclk5:0 clknet_4_1__leaf_h1\/gclk5:4 0.011544
2 h1/ff45:CK clknet_4_1__leaf_h1\/gclk5:11 1e-06
3 clknet_4_1__leaf_h1\/gclk5:11 clknet_4_1__leaf_h1\/gclk5:0 1e-06
4 h1/ff135:CK clknet_4_1__leaf_h1\/gclk5:13 1e-06
5 clknet_4_1__leaf_h1\/gclk5:13 clknet_4_1__leaf_h1\/gclk5:4 1e-06
6 clknet_4_1__leaf_h1\/gclk5:1 clknet_4_1__leaf_h1\/gclk5:2 0.0100072
7 h1/ff80:CK clknet_4_1__leaf_h1\/gclk5:15 1e-06
8 clknet_4_1__leaf_h1\/gclk5:15 clknet_4_1__leaf_h1\/gclk5:1 1e-06
9 h1/ff40:CK clknet_4_1__leaf_h1\/gclk5:17 1e-06
10 clknet_4_1__leaf_h1\/gclk5:17 clknet_4_1__leaf_h1\/gclk5:2 1e-06
11 clknet_4_1__leaf_h1\/gclk5:2 clknet_4_1__leaf_h1\/gclk5:3 0.00561118
12 h1/ff23:CK clknet_4_1__leaf_h1\/gclk5:19 1e-06
13 clknet_4_1__leaf_h1\/gclk5:19 clknet_4_1__leaf_h1\/gclk5:3 1e-06
14 clknet_4_1__leaf_h1\/gclk5:3 clknet_4_1__leaf_h1\/gclk5:9 0.00193353
15 clknet_4_1__leaf_h1\/gclk5:4 clknet_4_1__leaf_h1\/gclk5:9 0.00246249
16 clknet_4_1__leaf_h1\/gclk5:5 clknet_4_1__leaf_h1\/gclk5:4 0.00561118
17 h1/ff117:CK clknet_4_1__leaf_h1\/gclk5:21 1e-06
18 clknet_4_1__leaf_h1\/gclk5:21 clknet_4_1__leaf_h1\/gclk5:5 1e-06
19 clknet_4_1__leaf_h1\/gclk5:6 clknet_4_1__leaf_h1\/gclk5:10 0.00189422
20 clkload1:A clknet_4_1__leaf_h1\/gclk5:23 1e-06
21 clknet_4_1__leaf_h1\/gclk5:23 clknet_4_1__leaf_h1\/gclk5:6 1e-06
22 clknet_4_1__leaf_h1\/gclk5:7 clknet_4_1__leaf_h1\/gclk5:7 1e-06
23 h1/clkbuf_4_1__f_h1\/gclk5:Z clknet_4_1__leaf_h1\/gclk5:25 1e-06
24 clknet_4_1__leaf_h1\/gclk5:25 clknet_4_1__leaf_h1\/gclk5:7 1e-06
25 clknet_4_1__leaf_h1\/gclk5:8 clknet_4_1__leaf_h1\/gclk5:10 0.0113028
26 h1/ff113:CK clknet_4_1__leaf_h1\/gclk5:27 1e-06
27 clknet_4_1__leaf_h1\/gclk5:27 clknet_4_1__leaf_h1\/gclk5:8 1e-06
28 clknet_4_1__leaf_h1\/gclk5:9 clknet_4_1__leaf_h1\/gclk5:6 0.000280559
29 clknet_4_1__leaf_h1\/gclk5:10 clknet_4_1__leaf_h1\/gclk5:7 8.935e-06
*END

*D_NET clknet_4_2__leaf_h1\/gclk5 1.23056
*CONN
*I h1/ff125:CK I *D DFF_X1
*I h1/ff137:CK I *D DFF_X1
*I h1/ff25:CK I *D DFF_X1
*I h1/ff30:CK I *D DFF_X1
*I h1/ff42:CK I *D DFF_X1
*I h1/ff54:CK I *D DFF_X1
*I h1/ff61:CK I *D DFF_X1
*I h1/ff82:CK I *D DFF_X1
*I h1/clkbuf_4_2__f_h1\/gclk5:Z O *D CLKBUF_X3
*I clkload2:A I *D INV_X4
*CAP
1 clknet_4_2__leaf_h1\/gclk5:0 0.121383
2 clknet_4_2__leaf_h1\/gclk5:1 0.0105224
3 clknet_4_2__leaf_h1\/gclk5:2 0.0462234
4 clknet_4_2__leaf_h1\/gclk5:3 0.0269637
5 clknet_4_2__leaf_h1\/gclk5:4 9.395e-05
6 clknet_4_2__leaf_h1\/gclk5:5 0.0462234
7 clknet_4_2__leaf_h1\/gclk5:6 0.105224
8 clknet_4_2__leaf_h1\/gclk5:7 0.105224
9 clknet_4_2__leaf_h1\/gclk5:8 0.105224
10 clknet_4_2__leaf_h1\/gclk5:9 0.210166
11 clknet_4_2__leaf_h1\/gclk5:10 0.216085
12 clknet_4_2__leaf_h1\/gclk5:11 0.0660468
13 clknet_4_2__leaf_h1\/gclk5:12 0.171177
*RES
1 clknet_4_2__leaf_h1\/gclk5:0 clknet_4_2__leaf_h1\/gclk5:10 0.011544
2 h1/ff54:CK clknet_4_2__leaf_h1\/gclk5:13 1e-06
3 clknet_4_2__leaf_h1\/gclk5:13 clknet_4_2__leaf_h1\/gclk5:0 1e-06
4 clknet_4_2__leaf_h1\/gclk5:1 clknet_4_2__leaf_h1\/gclk5:11 0.00100072
5 h1/ff30:CK clknet_4_2__leaf_h1\/gclk5:15 1e-06
6 clknet_4_2__leaf_h1\/gclk5:15 clknet_4_2__leaf_h1\/gclk5:1 1e-06
7 clknet_4_2__leaf_h1\/gclk5:2 clknet_4_2__leaf_h1\/gclk5:10 0.00439602
8 h1/ff125:CK clknet_4_2__leaf_h1\/gclk5:17 1e-06
9 clknet_4_2__leaf_h1\/gclk5:17 clknet_4_2__leaf_h1\/gclk5:2 1e-06
10 clknet_4_2__leaf_h1\/gclk5:3 clknet_4_2__leaf_h1\/gclk5:12 0.00189422
11 clkload2:A clknet_4_2__leaf_h1\/gclk5:19 1e-06
12 clknet_4_2__leaf_h1\/gclk5:19 clknet_4_2__leaf_h1\/gclk5:3 1e-06
13 clknet_4_2__leaf_h1\/gclk5:4 clknet_4_2__leaf_h1\/gclk5:4 1e-06
14 h1/clkbuf_4_2__f_h1\/gclk5:Z clknet_4_2__leaf_h1\/gclk5:21 1e-06
15 clknet_4_2__leaf_h1\/gclk5:21 clknet_4_2__leaf_h1\/gclk5:4 1e-06
16 clknet_4_2__leaf_h1\/gclk5:5 clknet_4_2__leaf_h1\/gclk5:6 0.00439602
17 h1/ff82:CK clknet_4_2__leaf_h1\/gclk5:23 1e-06
18 clknet_4_2__leaf_h1\/gclk5:23 clknet_4_2__leaf_h1\/gclk5:5 1e-06
19 h1/ff61:CK clknet_4_2__leaf_h1\/gclk5:25 1e-06
20 clknet_4_2__leaf_h1\/gclk5:25 clknet_4_2__leaf_h1\/gclk5:6 1e-06
21 clknet_4_2__leaf_h1\/gclk5:6 clknet_4_2__leaf_h1\/gclk5:7 0.00561118
22 h1/ff42:CK clknet_4_2__leaf_h1\/gclk5:27 1e-06
23 clknet_4_2__leaf_h1\/gclk5:27 clknet_4_2__leaf_h1\/gclk5:7 1e-06
24 clknet_4_2__leaf_h1\/gclk5:7 clknet_4_2__leaf_h1\/gclk5:8 0.00439602
25 h1/ff25:CK clknet_4_2__leaf_h1\/gclk5:29 1e-06
26 clknet_4_2__leaf_h1\/gclk5:29 clknet_4_2__leaf_h1\/gclk5:8 1e-06
27 clknet_4_2__leaf_h1\/gclk5:8 clknet_4_2__leaf_h1\/gclk5:9 0.00561118
28 h1/ff137:CK clknet_4_2__leaf_h1\/gclk5:31 1e-06
29 clknet_4_2__leaf_h1\/gclk5:31 clknet_4_2__leaf_h1\/gclk5:9 1e-06
30 clknet_4_2__leaf_h1\/gclk5:9 clknet_4_2__leaf_h1\/gclk5:12 0.0143764
31 clknet_4_2__leaf_h1\/gclk5:10 clknet_4_2__leaf_h1\/gclk5:11 0.00461046
32 clknet_4_2__leaf_h1\/gclk5:11 clknet_4_2__leaf_h1\/gclk5:3 0.000670125
33 clknet_4_2__leaf_h1\/gclk5:12 clknet_4_2__leaf_h1\/gclk5:4 8.935e-06
*END

*D_NET clknet_4_3__leaf_h1\/gclk5 1.68828
*CONN
*I h1/ff102:CK I *D DFF_X1
*I h1/ff107:CK I *D DFF_X1
*I h1/ff12:CK I *D DFF_X1
*I h1/ff143:CK I *D DFF_X1
*I h1/ff2:CK I *D DFF_X1
*I h1/ff37:CK I *D DFF_X1
*I h1/ff47:CK I *D DFF_X1
*I h1/ff66:CK I *D DFF_X1
*I h1/ff74:CK I *D DFF_X1
*I h1/ff87:CK I *D DFF_X1
*I h1/ff94:CK I *D DFF_X1
*I h1/clkbuf_4_3__f_h1\/gclk5:Z O *D CLKBUF_X3
*I clkload3:A I *D INV_X2
*CAP
1 clknet_4_3__leaf_h1\/gclk5:0 0.167607
2 clknet_4_3__leaf_h1\/gclk5:1 0.0462234
3 clknet_4_3__leaf_h1\/gclk5:2 0.0590006
4 clknet_4_3__leaf_h1\/gclk5:3 0.180384
5 clknet_4_3__leaf_h1\/gclk5:4 0.0462234
6 clknet_4_3__leaf_h1\/gclk5:5 0.105224
7 clknet_4_3__leaf_h1\/gclk5:6 0.23946
8 clknet_4_3__leaf_h1\/gclk5:7 0.151372
9 clknet_4_3__leaf_h1\/gclk5:8 0.226607
10 clknet_4_3__leaf_h1\/gclk5:9 0.0293876
11 clknet_4_3__leaf_h1\/gclk5:10 0.111819
12 clknet_4_3__leaf_h1\/gclk5:11 0.0129463
13 clknet_4_3__leaf_h1\/gclk5:12 0.0460543
14 clknet_4_3__leaf_h1\/gclk5:13 0.15109
15 clknet_4_3__leaf_h1\/gclk5:14 0.114882
*RES
1 clknet_4_3__leaf_h1\/gclk5:0 clknet_4_3__leaf_h1\/gclk5:6 0.011544
2 h1/ff94:CK clknet_4_3__leaf_h1\/gclk5:15 1e-06
3 clknet_4_3__leaf_h1\/gclk5:15 clknet_4_3__leaf_h1\/gclk5:0 1e-06
4 h1/ff47:CK clknet_4_3__leaf_h1\/gclk5:17 1e-06
5 clknet_4_3__leaf_h1\/gclk5:17 clknet_4_3__leaf_h1\/gclk5:6 1e-06
6 clknet_4_3__leaf_h1\/gclk5:1 clknet_4_3__leaf_h1\/gclk5:0 0.00439602
7 h1/ff74:CK clknet_4_3__leaf_h1\/gclk5:19 1e-06
8 clknet_4_3__leaf_h1\/gclk5:19 clknet_4_3__leaf_h1\/gclk5:1 1e-06
9 clknet_4_3__leaf_h1\/gclk5:2 clknet_4_3__leaf_h1\/gclk5:3 0.00561118
10 h1/ff37:CK clknet_4_3__leaf_h1\/gclk5:21 1e-06
11 clknet_4_3__leaf_h1\/gclk5:21 clknet_4_3__leaf_h1\/gclk5:2 1e-06
12 h1/ff2:CK clknet_4_3__leaf_h1\/gclk5:23 1e-06
13 clknet_4_3__leaf_h1\/gclk5:23 clknet_4_3__leaf_h1\/gclk5:3 1e-06
14 clknet_4_3__leaf_h1\/gclk5:3 clknet_4_3__leaf_h1\/gclk5:8 0.011544
15 h1/ff107:CK clknet_4_3__leaf_h1\/gclk5:25 1e-06
16 clknet_4_3__leaf_h1\/gclk5:25 clknet_4_3__leaf_h1\/gclk5:8 1e-06
17 clknet_4_3__leaf_h1\/gclk5:4 clknet_4_3__leaf_h1\/gclk5:5 0.00439602
18 h1/ff87:CK clknet_4_3__leaf_h1\/gclk5:27 1e-06
19 clknet_4_3__leaf_h1\/gclk5:27 clknet_4_3__leaf_h1\/gclk5:4 1e-06
20 h1/ff66:CK clknet_4_3__leaf_h1\/gclk5:29 1e-06
21 clknet_4_3__leaf_h1\/gclk5:29 clknet_4_3__leaf_h1\/gclk5:5 1e-06
22 clknet_4_3__leaf_h1\/gclk5:5 clknet_4_3__leaf_h1\/gclk5:6 0.00561118
23 clknet_4_3__leaf_h1\/gclk5:6 clknet_4_3__leaf_h1\/gclk5:14 0.00561833
24 clknet_4_3__leaf_h1\/gclk5:7 clknet_4_3__leaf_h1\/gclk5:14 0.00438887
25 h1/ff143:CK clknet_4_3__leaf_h1\/gclk5:31 1e-06
26 clknet_4_3__leaf_h1\/gclk5:31 clknet_4_3__leaf_h1\/gclk5:7 1e-06
27 clknet_4_3__leaf_h1\/gclk5:8 clknet_4_3__leaf_h1\/gclk5:7 0.0100072
28 clknet_4_3__leaf_h1\/gclk5:9 clknet_4_3__leaf_h1\/gclk5:10 0.00187635
29 clkload3:A clknet_4_3__leaf_h1\/gclk5:33 1e-06
30 clknet_4_3__leaf_h1\/gclk5:33 clknet_4_3__leaf_h1\/gclk5:9 1e-06
31 h1/clkbuf_4_3__f_h1\/gclk5:Z clknet_4_3__leaf_h1\/gclk5:35 1e-06
32 clknet_4_3__leaf_h1\/gclk5:35 clknet_4_3__leaf_h1\/gclk5:10 1e-06
33 clknet_4_3__leaf_h1\/gclk5:10 clknet_4_3__leaf_h1\/gclk5:10 1e-06
34 clknet_4_3__leaf_h1\/gclk5:11 clknet_4_3__leaf_h1\/gclk5:13 0.00123124
35 h1/ff12:CK clknet_4_3__leaf_h1\/gclk5:37 1e-06
36 clknet_4_3__leaf_h1\/gclk5:37 clknet_4_3__leaf_h1\/gclk5:11 1e-06
37 clknet_4_3__leaf_h1\/gclk5:12 clknet_4_3__leaf_h1\/gclk5:13 0.00437994
38 h1/ff102:CK clknet_4_3__leaf_h1\/gclk5:39 1e-06
39 clknet_4_3__leaf_h1\/gclk5:39 clknet_4_3__leaf_h1\/gclk5:12 1e-06
40 clknet_4_3__leaf_h1\/gclk5:13 clknet_4_3__leaf_h1\/gclk5:10 0.00875809
41 clknet_4_3__leaf_h1\/gclk5:14 clknet_4_3__leaf_h1\/gclk5:9 0.000918518
*END

*D_NET clknet_4_4__leaf_h1\/gclk5 2.24123
*CONN
*I h1/ff112:CK I *D DFF_X1
*I h1/ff134:CK I *D DFF_X1
*I h1/ff14:CK I *D DFF_X1
*I h1/ff4:CK I *D DFF_X1
*I h1/ff50:CK I *D DFF_X1
*I h1/ff53:CK I *D DFF_X1
*I h1/ff69:CK I *D DFF_X1
*I h1/ff71:CK I *D DFF_X1
*I h1/ff8:CK I *D DFF_X1
*I h1/ff84:CK I *D DFF_X1
*I h1/clkbuf_4_4__f_h1\/gclk5:Z O *D CLKBUF_X3
*I clkload4:A I *D INV_X2
*CAP
1 clknet_4_4__leaf_h1\/gclk5:0 0.0590006
2 clknet_4_4__leaf_h1\/gclk5:1 0.180384
3 clknet_4_4__leaf_h1\/gclk5:2 0.331831
4 clknet_4_4__leaf_h1\/gclk5:3 0.331831
5 clknet_4_4__leaf_h1\/gclk5:4 0.281869
6 clknet_4_4__leaf_h1\/gclk5:5 0.230347
7 clknet_4_4__leaf_h1\/gclk5:6 0.105224
8 clknet_4_4__leaf_h1\/gclk5:7 0.0511276
9 clknet_4_4__leaf_h1\/gclk5:8 0.139948
10 clknet_4_4__leaf_h1\/gclk5:9 0.0462234
11 clknet_4_4__leaf_h1\/gclk5:10 0.226607
12 clknet_4_4__leaf_h1\/gclk5:11 0.120218
13 clknet_4_4__leaf_h1\/gclk5:12 0.136622
*RES
1 clknet_4_4__leaf_h1\/gclk5:0 clknet_4_4__leaf_h1\/gclk5:1 0.00561118
2 h1/ff69:CK clknet_4_4__leaf_h1\/gclk5:13 1e-06
3 clknet_4_4__leaf_h1\/gclk5:13 clknet_4_4__leaf_h1\/gclk5:0 1e-06
4 h1/ff50:CK clknet_4_4__leaf_h1\/gclk5:15 1e-06
5 clknet_4_4__leaf_h1\/gclk5:15 clknet_4_4__leaf_h1\/gclk5:1 1e-06
6 clknet_4_4__leaf_h1\/gclk5:1 clknet_4_4__leaf_h1\/gclk5:3 0.011544
7 h1/ff14:CK clknet_4_4__leaf_h1\/gclk5:17 1e-06
8 clknet_4_4__leaf_h1\/gclk5:17 clknet_4_4__leaf_h1\/gclk5:3 1e-06
9 clknet_4_4__leaf_h1\/gclk5:2 clknet_4_4__leaf_h1\/gclk5:5 0.011544
10 h1/ff84:CK clknet_4_4__leaf_h1\/gclk5:19 1e-06
11 clknet_4_4__leaf_h1\/gclk5:19 clknet_4_4__leaf_h1\/gclk5:2 1e-06
12 h1/ff4:CK clknet_4_4__leaf_h1\/gclk5:21 1e-06
13 clknet_4_4__leaf_h1\/gclk5:21 clknet_4_4__leaf_h1\/gclk5:5 1e-06
14 clknet_4_4__leaf_h1\/gclk5:3 clknet_4_4__leaf_h1\/gclk5:2 0.0200144
15 clknet_4_4__leaf_h1\/gclk5:4 clknet_4_4__leaf_h1\/gclk5:12 0.00965159
16 h1/ff8:CK clknet_4_4__leaf_h1\/gclk5:23 1e-06
17 clknet_4_4__leaf_h1\/gclk5:23 clknet_4_4__leaf_h1\/gclk5:4 1e-06
18 clknet_4_4__leaf_h1\/gclk5:5 clknet_4_4__leaf_h1\/gclk5:12 0.000355613
19 clknet_4_4__leaf_h1\/gclk5:6 clknet_4_4__leaf_h1\/gclk5:5 0.0100072
20 h1/ff134:CK clknet_4_4__leaf_h1\/gclk5:25 1e-06
21 clknet_4_4__leaf_h1\/gclk5:25 clknet_4_4__leaf_h1\/gclk5:6 1e-06
22 clknet_4_4__leaf_h1\/gclk5:7 clknet_4_4__leaf_h1\/gclk5:8 0.00187635
23 clkload4:A clknet_4_4__leaf_h1\/gclk5:27 1e-06
24 clknet_4_4__leaf_h1\/gclk5:27 clknet_4_4__leaf_h1\/gclk5:7 1e-06
25 h1/clkbuf_4_4__f_h1\/gclk5:Z clknet_4_4__leaf_h1\/gclk5:29 1e-06
26 clknet_4_4__leaf_h1\/gclk5:29 clknet_4_4__leaf_h1\/gclk5:8 1e-06
27 clknet_4_4__leaf_h1\/gclk5:8 clknet_4_4__leaf_h1\/gclk5:8 1e-06
28 clknet_4_4__leaf_h1\/gclk5:9 clknet_4_4__leaf_h1\/gclk5:10 0.00439602
29 h1/ff71:CK clknet_4_4__leaf_h1\/gclk5:31 1e-06