*SPEF "ieee 1481-1999"
*DESIGN "multi_sink"
*DATE "11:11:11 Fri 11 11, 1111"
*VENDOR "The OpenROAD Project"
*PROGRAM "OpenROAD"
*VERSION "1.0"
*DESIGN_FLOW "NAME_SCOPE LOCAL" "PIN_CAP NONE"
*DIVIDER /
*DELIMITER :
*BUS_DELIMITER []
*T_UNIT 1 NS
*C_UNIT 1 FF
*R_UNIT 1 KOHM
*L_UNIT 1 HENRY

*PORTS
clk I

*D_NET clk 1.08321
*CONN
*P clk I
*I clkbuf_0_clk:A I *D CLKBUF_X3
*CAP
1 clk:0 0.541603
2 clk:1 0.541603
*RES
1 clk:0 clk:0 1e-06
2 clk:0 clk 1e-06
3 clk:0 clk 1e-06
4 clk:0 clk 1e-06
5 clk:0 clk 1e-06
6 clk:0 clk 1e-06
7 clk:1 clk:0 0.0222934
8 clk:1 clkbuf_0_clk:A 1e-06
9 clk:1 clkbuf_0_clk:A 1e-06
10 clk:1 clkbuf_0_clk:A 1e-06
11 clk:1 clkbuf_0_clk:A 1e-06
12 clk:1 clkbuf_0_clk:A 1e-06
13 clk:0 clk 1e-06
*END

*D_NET gclk1 0.16457
*CONN
*I gclk1:GCK O *D CLKGATE_X1
*I clkbuf_0_gclk1:A I *D CLKBUF_X3
*CAP
1 gclk1:0 0.0822849
2 gclk1:1 0.0822849
*RES
1 gclk1:0 gclk1:1 0.00338701
2 gclk1:0 clkbuf_0_gclk1:A 1e-06
3 gclk1:0 clkbuf_0_gclk1:A 1e-06
4 gclk1:0 clkbuf_0_gclk1:A 1e-06
5 gclk1:0 clkbuf_0_gclk1:A 1e-06
6 gclk1:0 clkbuf_0_gclk1:A 1e-06
7 gclk1:1 gclk1:GCK 1e-06
8 gclk1:1 gclk1:GCK 1e-06
9 gclk1:1 gclk1:GCK 1e-06
10 gclk1:1 gclk1:GCK 1e-06
11 gclk1:1 gclk1:GCK 1e-06
12 gclk1:1 gclk1:1 1e-06
13 gclk1:1 gclk1:GCK 1e-06
14 gclk1:1 gclk1:GCK 1e-06
*END

*D_NET gclk3 0.16457
*CONN
*I gclk3:GCK O *D CLKGATE_X1
*I clkbuf_0_gclk3:A I *D CLKBUF_X3
*CAP
1 gclk3:0 0.0822849
2 gclk3:1 0.0822849
*RES
1 gclk3:0 gclk3:1 0.00338701
2 gclk3:0 clkbuf_0_gclk3:A 1e-06
3 gclk3:0 clkbuf_0_gclk3:A 1e-06
4 gclk3:0 clkbuf_0_gclk3:A 1e-06
5 gclk3:0 clkbuf_0_gclk3:A 1e-06
6 gclk3:0 clkbuf_0_gclk3:A 1e-06
7 gclk3:1 gclk3:GCK 1e-06
8 gclk3:1 gclk3:GCK 1e-06
9 gclk3:1 gclk3:GCK 1e-06
10 gclk3:1 gclk3:GCK 1e-06
11 gclk3:1 gclk3:GCK 1e-06
12 gclk3:1 gclk3:1 1e-06
13 gclk3:1 gclk3:GCK 1e-06
14 gclk3:1 gclk3:GCK 1e-06
*END

*D_NET gclk4 0.576797
*CONN
*I gclk4:GCK O *D CLKGATE_X1
*I clkbuf_0_gclk4:A I *D CLKBUF_X3
*I delaybuf_0_core:A I *D CLKBUF_X3
*CAP
1 gclk4:0 0.0193762
2 gclk4:1 0.231511
3 gclk4:2 0.0375117
4 gclk4:3 0.288399
*RES
1 gclk4:0 gclk4:3 0.000797562
2 gclk4:0 delaybuf_0_core:A 1e-06
3 gclk4:0 delaybuf_0_core:A 1e-06
4 gclk4:0 delaybuf_0_core:A 1e-06
5 gclk4:0 delaybuf_0_core:A 1e-06
6 gclk4:0 delaybuf_0_core:A 1e-06
7 gclk4:1 gclk4:3 0.00952944
8 gclk4:1 clkbuf_0_gclk4:A 1e-06
9 gclk4:1 clkbuf_0_gclk4:A 1e-06
10 gclk4:1 clkbuf_0_gclk4:A 1e-06
11 gclk4:1 clkbuf_0_gclk4:A 1e-06
12 gclk4:1 clkbuf_0_gclk4:A 1e-06
13 gclk4:2 gclk4:2 1e-06
14 gclk4:2 gclk4:GCK 1e-06
15 gclk4:2 gclk4:GCK 1e-06
16 gclk4:2 gclk4:GCK 1e-06
17 gclk4:2 gclk4:GCK 1e-06
18 gclk4:2 gclk4:GCK 1e-06
19 gclk4:2 gclk4:GCK 1e-06
20 gclk4:3 gclk4:2 0.00154406
21 gclk4:2 gclk4:GCK 1e-06
*END

*D_NET h1/gclk2 0.174422
*CONN
*I h1/gclk2:GCK O *D CLKGATE_X1
*I h1/clkbuf_0_h1\/gclk2:A I *D CLKBUF_X3
*CAP
1 h1/gclk2:0 0.0872111
2 h1/gclk2:1 0.0872111
*RES
1 h1/gclk2:0 h1/gclk2:1 0.00358978
2 h1/gclk2:0 h1/clkbuf_0_h1\/gclk2:A 1e-06
3 h1/gclk2:0 h1/clkbuf_0_h1\/gclk2:A 1e-06
4 h1/gclk2:0 h1/clkbuf_0_h1\/gclk2:A 1e-06
5 h1/gclk2:0 h1/clkbuf_0_h1\/gclk2:A 1e-06
6 h1/gclk2:0 h1/clkbuf_0_h1\/gclk2:A 1e-06
7 h1/gclk2:1 h1/gclk2:GCK 1e-06
8 h1/gclk2:1 h1/gclk2:GCK 1e-06
9 h1/gclk2:1 h1/gclk2:GCK 1e-06
10 h1/gclk2:1 h1/gclk2:GCK 1e-06
11 h1/gclk2:1 h1/gclk2:GCK 1e-06
12 h1/gclk2:1 h1/gclk2:1 1e-06
13 h1/gclk2:1 h1/gclk2:GCK 1e-06
14 h1/gclk2:1 h1/gclk2:GCK 1e-06
*END

*D_NET h1/gclk5 0.0886707
*CONN
*I h1/gclk5:GCK O *D CLKGATE_X1
*I h1/clkbuf_0_h1\/gclk5:A I *D CLKBUF_X3
*CAP
1 h1/gclk5:0 0.0443354
2 h1/gclk5:1 0.0443354
*RES
1 h1/gclk5:0 h1/gclk5:1 0.00182493
2 h1/gclk5:0 h1/clkbuf_0_h1\/gclk5:A 1e-06
3 h1/gclk5:0 h1/clkbuf_0_h1\/gclk5:A 1e-06
4 h1/gclk5:0 h1/clkbuf_0_h1\/gclk5:A 1e-06
5 h1/gclk5:0 h1/clkbuf_0_h1\/gclk5:A 1e-06
6 h1/gclk5:0 h1/clkbuf_0_h1\/gclk5:A 1e-06
7 h1/gclk5:1 h1/gclk5:GCK 1e-06
8 h1/gclk5:1 h1/gclk5:GCK 1e-06
9 h1/gclk5:1 h1/gclk5:GCK 1e-06
10 h1/gclk5:1 h1/gclk5:GCK 1e-06
11 h1/gclk5:1 h1/gclk5:GCK 1e-06
12 h1/gclk5:1 h1/gclk5:1 1e-06
13 h1/gclk5:1 h1/gclk5:GCK 1e-06
14 h1/gclk5:1 h1/gclk5:GCK 1e-06
*END

*D_NET gclk4_regs 0.038132
*CONN
*I clkbuf_regs_0_core:Z O *D CLKBUF_X3
*I clkbuf_0_gclk4_regs:A I *D CLKBUF_X3
*CAP
1 gclk4_regs:0 0.019066
2 gclk4_regs:1 0.019066
*RES
1 gclk4_regs:0 gclk4_regs:1 0.000784795
2 gclk4_regs:0 clkbuf_0_gclk4_regs:A 1e-06
3 gclk4_regs:0 clkbuf_0_gclk4_regs:A 1e-06
4 gclk4_regs:0 clkbuf_0_gclk4_regs:A 1e-06
5 gclk4_regs:0 clkbuf_0_gclk4_regs:A 1e-06
6 gclk4_regs:0 clkbuf_0_gclk4_regs:A 1e-06
7 gclk4_regs:1 clkbuf_regs_0_core:Z 1e-06
8 gclk4_regs:1 clkbuf_regs_0_core:Z 1e-06
9 gclk4_regs:1 clkbuf_regs_0_core:Z 1e-06
10 gclk4_regs:1 clkbuf_regs_0_core:Z 1e-06
11 gclk4_regs:1 clkbuf_regs_0_core:Z 1e-06
12 gclk4_regs:1 gclk4_regs:1 1e-06
13 gclk4_regs:1 clkbuf_regs_0_core:Z 1e-06
14 gclk4_regs:1 clkbuf_regs_0_core:Z 1e-06
*END

*D_NET clknet_0_clk 0.721225
*CONN
*I clkbuf_0_clk:Z O *D CLKBUF_X3
*I clkbuf_1_0__f_clk:A I *D CLKBUF_X3
*I delaybuf_4_core:A I *D CLKBUF_X3
*CAP
1 clknet_0_clk:0 0.260082
2 clknet_0_clk:1 0.0861164
3 clknet_0_clk:2 0.0144135
4 clknet_0_clk:3 0.360612
*RES
1 clknet_0_clk:0 clknet_0_clk:3 0.0107055
2 clknet_0_clk:0 clkbuf_1_0__f_clk:A 1e-06
3 clknet_0_clk:0 clkbuf_1_0__f_clk:A 1e-06
4 clknet_0_clk:0 clkbuf_1_0__f_clk:A 1e-06
5 clknet_0_clk:0 clkbuf_1_0__f_clk:A 1e-06
6 clknet_0_clk:0 clkbuf_1_0__f_clk:A 1e-06
7 clknet_0_clk:1 clknet_0_clk:3 0.00354472
8 clknet_0_clk:1 delaybuf_4_core:A 1e-06
9 clknet_0_clk:1 delaybuf_4_core:A 1e-06
10 clknet_0_clk:1 delaybuf_4_core:A 1e-06
11 clknet_0_clk:1 delaybuf_4_core:A 1e-06
12 clknet_0_clk:1 delaybuf_4_core:A 1e-06
13 clknet_0_clk:2 clknet_0_clk:2 1e-06
14 clknet_0_clk:2 clkbuf_0_clk:Z 1e-06
15 clknet_0_clk:2 clkbuf_0_clk:Z 1e-06
16 clknet_0_clk:2 clkbuf_0_clk:Z 1e-06
17 clknet_0_clk:2 clkbuf_0_clk:Z 1e-06
18 clknet_0_clk:2 clkbuf_0_clk:Z 1e-06
19 clknet_0_clk:2 clkbuf_0_clk:Z 1e-06
20 clknet_0_clk:3 clknet_0_clk:2 0.00059329
21 clknet_0_clk:2 clkbuf_0_clk:Z 1e-06
*END

*D_NET clknet_1_0__leaf_clk 0.574243
*CONN
*I gclk4:CK I *D CLKGATE_X1
*I clkbuf_1_0__f_clk:Z O *D CLKBUF_X3
*I delaybuf_2_core:A I *D CLKBUF_X3
*CAP
1 clknet_1_0__leaf_clk:0 0.0257619
2 clknet_1_0__leaf_clk:1 0.0488601
3 clknet_1_0__leaf_clk:2 0.2125
4 clknet_1_0__leaf_clk:3 0.287122
*RES
1 clknet_1_0__leaf_clk:0 clknet_1_0__leaf_clk:3 0.00106041
2 clknet_1_0__leaf_clk:0 delaybuf_2_core:A 1e-06
3 clknet_1_0__leaf_clk:0 delaybuf_2_core:A 1e-06
4 clknet_1_0__leaf_clk:0 delaybuf_2_core:A 1e-06
5 clknet_1_0__leaf_clk:0 delaybuf_2_core:A 1e-06
6 clknet_1_0__leaf_clk:0 delaybuf_2_core:A 1e-06
7 clknet_1_0__leaf_clk:1 clknet_1_0__leaf_clk:1 1e-06
8 clknet_1_0__leaf_clk:1 clkbuf_1_0__f_clk:Z 1e-06
9 clknet_1_0__leaf_clk:1 clkbuf_1_0__f_clk:Z 1e-06
10 clknet_1_0__leaf_clk:1 clkbuf_1_0__f_clk:Z 1e-06
11 clknet_1_0__leaf_clk:1 clkbuf_1_0__f_clk:Z 1e-06
12 clknet_1_0__leaf_clk:1 clkbuf_1_0__f_clk:Z 1e-06
13 clknet_1_0__leaf_clk:1 clkbuf_1_0__f_clk:Z 1e-06
14 clknet_1_0__leaf_clk:2 clknet_1_0__leaf_clk:3 0.0087469
15 clknet_1_0__leaf_clk:2 gclk4:CK 1e-06
16 clknet_1_0__leaf_clk:2 gclk4:CK 1e-06
17 clknet_1_0__leaf_clk:2 gclk4:CK 1e-06
18 clknet_1_0__leaf_clk:2 gclk4:CK 1e-06
19 clknet_1_0__leaf_clk:2 gclk4:CK 1e-06
20 clknet_1_0__leaf_clk:3 clknet_1_0__leaf_clk:1 0.00201118
21 clknet_1_0__leaf_clk:1 clkbuf_1_0__f_clk:Z 1e-06
*END

*D_NET clknet_1_1__leaf_clk 0.389896
*CONN
*I gclk1:CK I *D CLKGATE_X1
*I h1/gclk2:CK I *D CLKGATE_X1
*I clkbuf_1_1__f_clk:Z O *D CLKBUF_X3
*CAP
1 clknet_1_1__leaf_clk:0 0.130543
2 clknet_1_1__leaf_clk:1 0.0644048
3 clknet_1_1__leaf_clk:2 0.194948
*RES
1 clknet_1_1__leaf_clk:0 clknet_1_1__leaf_clk:0 1e-06
2 clknet_1_1__leaf_clk:0 clkbuf_1_1__f_clk:Z 1e-06
3 clknet_1_1__leaf_clk:0 clkbuf_1_1__f_clk:Z 1e-06
4 clknet_1_1__leaf_clk:0 clkbuf_1_1__f_clk:Z 1e-06
5 clknet_1_1__leaf_clk:0 clkbuf_1_1__f_clk:Z 1e-06
6 clknet_1_1__leaf_clk:0 clkbuf_1_1__f_clk:Z 1e-06
7 clknet_1_1__leaf_clk:0 clkbuf_1_1__f_clk:Z 1e-06
8 clknet_1_1__leaf_clk:1 clknet_1_1__leaf_clk:2 0.00265103
9 clknet_1_1__leaf_clk:1 h1/gclk2:CK 1e-06
10 clknet_1_1__leaf_clk:1 h1/gclk2:CK 1e-06
11 clknet_1_1__leaf_clk:1 h1/gclk2:CK 1e-06
12 clknet_1_1__leaf_clk:1 h1/gclk2:CK 1e-06
13 clknet_1_1__leaf_clk:1 h1/gclk2:CK 1e-06
14 clknet_1_1__leaf_clk:2 gclk1:CK 1e-06
15 clknet_1_1__leaf_clk:2 gclk1:CK 1e-06
16 clknet_1_1__leaf_clk:2 gclk1:CK 1e-06
17 clknet_1_1__leaf_clk:2 gclk1:CK 1e-06
18 clknet_1_1__leaf_clk:2 gclk1:CK 1e-06
19 clknet_1_1__leaf_clk:2 clknet_1_1__leaf_clk:0 0.0053734
20 clknet_1_1__leaf_clk:2 gclk1:CK 1e-06
21 clknet_1_1__leaf_clk:0 clkbuf_1_1__f_clk:Z 1e-06
*END

*D_NET clknet_0_h1\/gclk5 7.18806
*CONN
*I h1/clkbuf_0_h1\/gclk5:Z O *D CLKBUF_X3
*I h1/clkbuf_4_0__f_h1\/gclk5:A I *D CLKBUF_X3
*I h1/clkbuf_4_1__f_h1\/gclk5:A I *D CLKBUF_X3
*I h1/clkbuf_4_2__f_h1\/gclk5:A I *D CLKBUF_X3
*I h1/clkbuf_4_3__f_h1\/gclk5:A I *D CLKBUF_X3
*I h1/clkbuf_4_4__f_h1\/gclk5:A I *D CLKBUF_X3
*I h1/clkbuf_4_5__f_h1\/gclk5:A I *D CLKBUF_X3
*I h1/clkbuf_4_6__f_h1\/gclk5:A I *D CLKBUF_X3
*I h1/clkbuf_4_7__f_h1\/gclk5:A I *D CLKBUF_X3
*I h1/clkbuf_4_8__f_h1\/gclk5:A I *D CLKBUF_X3
*I h1/clkbuf_4_9__f_h1\/gclk5:A I *D CLKBUF_X3
*I h1/clkbuf_4_10__f_h1\/gclk5:A I *D CLKBUF_X3
*I h1/clkbuf_4_11__f_h1\/gclk5:A I *D CLKBUF_X3
*I h1/clkbuf_4_12__f_h1\/gclk5:A I *D CLKBUF_X3
*I h1/clkbuf_4_13__f_h1\/gclk5:A I *D CLKBUF_X3
*I h1/clkbuf_4_14__f_h1\/gclk5:A I *D CLKBUF_X3
*I h1/clkbuf_4_15__f_h1\/gclk5:A I *D CLKBUF_X3
*CAP
1 clknet_0_h1\/gclk5:0 0.0200513
2 clknet_0_h1\/gclk5:1 0.0200513
3 clknet_0_h1\/gclk5:2 0.00083927
4 clknet_0_h1\/gclk5:3 0.384404
5 clknet_0_h1\/gclk5:4 0.027331
6 clknet_0_h1\/gclk5:5 0.154645
7 clknet_0_h1\/gclk5:6 0.00452476
8 clknet_0_h1\/gclk5:7 0.287559
9 clknet_0_h1\/gclk5:8 0.610095
10 clknet_0_h1\/gclk5:9 0.00169678
11 clknet_0_h1\/gclk5:10 0.230599
12 clknet_0_h1\/gclk5:11 0.0439887
13 clknet_0_h1\/gclk5:12 0.0114579
14 clknet_0_h1\/gclk5:13 0.519581
15 clknet_0_h1\/gclk5:14 0.0412519
16 clknet_0_h1\/gclk5:15 0.0085934
17 clknet_0_h1\/gclk5:16 0.0085934
18 clknet_0_h1\/gclk5:17 0.912487
19 clknet_0_h1\/gclk5:18 0.543518
20 clknet_0_h1\/gclk5:19 0.728815
21 clknet_0_h1\/gclk5:20 0.530054
22 clknet_0_h1\/gclk5:21 0.532225
23 clknet_0_h1\/gclk5:22 0.478201
24 clknet_0_h1\/gclk5:23 0.595845
25 clknet_0_h1\/gclk5:24 0.491648
*RES
1 clknet_0_h1\/gclk5:0 clknet_0_h1\/gclk5:20 0.000825349
2 clknet_0_h1\/gclk5:0 h1/clkbuf_4_4__f_h1\/gclk5:A 1e-06
3 clknet_0_h1\/gclk5:0 h1/clkbuf_4_4__f_h1\/gclk5:A 1e-06
4 clknet_0_h1\/gclk5:0 h1/clkbuf_4_4__f_h1\/gclk5:A 1e-06
5 clknet_0_h1\/gclk5:0 h1/clkbuf_4_4__f_h1\/gclk5:A 1e-06
6 clknet_0_h1\/gclk5:0 h1/clkbuf_4_4__f_h1\/gclk5:A 1e-06
7 clknet_0_h1\/gclk5:1 clknet_0_h1\/gclk5:20 0.000825349
8 clknet_0_h1\/gclk5:1 h1/clkbuf_4_5__f_h1\/gclk5:A 1e-06
9 clknet_0_h1\/gclk5:1 h1/clkbuf_4_5__f_h1\/gclk5:A 1e-06
10 clknet_0_h1\/gclk5:1 h1/clkbuf_4_5__f_h1\/gclk5:A 1e-06
11 clknet_0_h1\/gclk5:1 h1/clkbuf_4_5__f_h1\/gclk5:A 1e-06
12 clknet_0_h1\/gclk5:1 h1/clkbuf_4_5__f_h1\/gclk5:A 1e-06
13 clknet_0_h1\/gclk5:2 clknet_0_h1\/gclk5:24 3.4546e-05
14 clknet_0_h1\/gclk5:2 h1/clkbuf_4_7__f_h1\/gclk5:A 1e-06
15 clknet_0_h1\/gclk5:2 h1/clkbuf_4_7__f_h1\/gclk5:A 1e-06
16 clknet_0_h1\/gclk5:2 h1/clkbuf_4_7__f_h1\/gclk5:A 1e-06
17 clknet_0_h1\/gclk5:2 h1/clkbuf_4_7__f_h1\/gclk5:A 1e-06
18 clknet_0_h1\/gclk5:2 h1/clkbuf_4_7__f_h1\/gclk5:A 1e-06
19 clknet_0_h1\/gclk5:3 clknet_0_h1\/gclk5:17 0.0157875
20 clknet_0_h1\/gclk5:3 h1/clkbuf_4_6__f_h1\/gclk5:A 1e-06
21 clknet_0_h1\/gclk5:3 h1/clkbuf_4_6__f_h1\/gclk5:A 1e-06
22 clknet_0_h1\/gclk5:3 h1/clkbuf_4_6__f_h1\/gclk5:A 1e-06
23 clknet_0_h1\/gclk5:3 h1/clkbuf_4_6__f_h1\/gclk5:A 1e-06
24 clknet_0_h1\/gclk5:3 h1/clkbuf_4_6__f_h1\/gclk5:A 1e-06
25 clknet_0_h1\/gclk5:4 clknet_0_h1\/gclk5:5 0.001125
26 clknet_0_h1\/gclk5:4 h1/clkbuf_4_0__f_h1\/gclk5:A 1e-06
27 clknet_0_h1\/gclk5:4 h1/clkbuf_4_0__f_h1\/gclk5:A 1e-06
28 clknet_0_h1\/gclk5:4 h1/clkbuf_4_0__f_h1\/gclk5:A 1e-06
29 clknet_0_h1\/gclk5:4 h1/clkbuf_4_0__f_h1\/gclk5:A 1e-06
30 clknet_0_h1\/gclk5:4 h1/clkbuf_4_0__f_h1\/gclk5:A 1e-06
31 clknet_0_h1\/gclk5:5 h1/clkbuf_4_1__f_h1\/gclk5:A 1e-06
32 clknet_0_h1\/gclk5:5 h1/clkbuf_4_1__f_h1\/gclk5:A 1e-06
33 clknet_0_h1\/gclk5:5 h1/clkbuf_4_1__f_h1\/gclk5:A 1e-06
34 clknet_0_h1\/gclk5:5 h1/clkbuf_4_1__f_h1\/gclk5:A 1e-06
35 clknet_0_h1\/gclk5:5 h1/clkbuf_4_1__f_h1\/gclk5:A 1e-06
36 clknet_0_h1\/gclk5:5 clknet_0_h1\/gclk5:17 0.00524048
37 clknet_0_h1\/gclk5:5 h1/clkbuf_4_1__f_h1\/gclk5:A 1e-06
38 clknet_0_h1\/gclk5:6 clknet_0_h1\/gclk5:7 0.000186248
39 clknet_0_h1\/gclk5:6 h1/clkbuf_4_2__f_h1\/gclk5:A 1e-06
40 clknet_0_h1\/gclk5:6 h1/clkbuf_4_2__f_h1\/gclk5:A 1e-06
41 clknet_0_h1\/gclk5:6 h1/clkbuf_4_2__f_h1\/gclk5:A 1e-06
42 clknet_0_h1\/gclk5:6 h1/clkbuf_4_2__f_h1\/gclk5:A 1e-06
43 clknet_0_h1\/gclk5:6 h1/clkbuf_4_2__f_h1\/gclk5:A 1e-06
44 clknet_0_h1\/gclk5:7 h1/clkbuf_4_3__f_h1\/gclk5:A 1e-06
45 clknet_0_h1\/gclk5:7 h1/clkbuf_4_3__f_h1\/gclk5:A 1e-06
46 clknet_0_h1\/gclk5:7 h1/clkbuf_4_3__f_h1\/gclk5:A 1e-06
47 clknet_0_h1\/gclk5:7 h1/clkbuf_4_3__f_h1\/gclk5:A 1e-06
48 clknet_0_h1\/gclk5:7 h1/clkbuf_4_3__f_h1\/gclk5:A 1e-06
49 clknet_0_h1\/gclk5:7 clknet_0_h1\/gclk5:23 0.0116503
50 clknet_0_h1\/gclk5:7 h1/clkbuf_4_3__f_h1\/gclk5:A 1e-06
51 clknet_0_h1\/gclk5:8 clknet_0_h1\/gclk5:8 1e-06
52 clknet_0_h1\/gclk5:8 h1/clkbuf_0_h1\/gclk5:Z 1e-06
53 clknet_0_h1\/gclk5:8 h1/clkbuf_0_h1\/gclk5:Z 1e-06
54 clknet_0_h1\/gclk5:8 h1/clkbuf_0_h1\/gclk5:Z 1e-06
55 clknet_0_h1\/gclk5:8 h1/clkbuf_0_h1\/gclk5:Z 1e-06
56 clknet_0_h1\/gclk5:8 h1/clkbuf_0_h1\/gclk5:Z 1e-06
57 clknet_0_h1\/gclk5:8 h1/clkbuf_0_h1\/gclk5:Z 1e-06
58 clknet_0_h1\/gclk5:9 clknet_0_h1\/gclk5:23 6.9843e-05
59 clknet_0_h1\/gclk5:9 h1/clkbuf_4_8__f_h1\/gclk5:A 1e-06
60 clknet_0_h1\/gclk5:9 h1/clkbuf_4_8__f_h1\/gclk5:A 1e-06
61 clknet_0_h1\/gclk5:9 h1/clkbuf_4_8__f_h1\/gclk5:A 1e-06
62 clknet_0_h1\/gclk5:9 h1/clkbuf_4_8__f_h1\/gclk5:A 1e-06
63 clknet_0_h1\/gclk5:9 h1/clkbuf_4_8__f_h1\/gclk5:A 1e-06
64 clknet_0_h1\/gclk5:10 clknet_0_h1\/gclk5:21 0.000520443
65 clknet_0_h1\/gclk5:10 h1/clkbuf_4_9__f_h1\/gclk5:A 1e-06
66 clknet_0_h1\/gclk5:10 h1/clkbuf_4_9__f_h1\/gclk5:A 1e-06
67 clknet_0_h1\/gclk5:10 h1/clkbuf_4_9__f_h1\/gclk5:A 1e-06
68 clknet_0_h1\/gclk5:10 h1/clkbuf_4_9__f_h1\/gclk5:A 1e-06
69 clknet_0_h1\/gclk5:10 h1/clkbuf_4_9__f_h1\/gclk5:A 1e-06
70 clknet_0_h1\/gclk5:11 clknet_0_h1\/gclk5:19 0.00133903
71 clknet_0_h1\/gclk5:11 h1/clkbuf_4_10__f_h1\/gclk5:A 1e-06
72 clknet_0_h1\/gclk5:11 h1/clkbuf_4_10__f_h1\/gclk5:A 1e-06
73 clknet_0_h1\/gclk5:11 h1/clkbuf_4_10__f_h1\/gclk5:A 1e-06
74 clknet_0_h1\/gclk5:11 h1/clkbuf_4_10__f_h1\/gclk5:A 1e-06
75 clknet_0_h1\/gclk5:11 h1/clkbuf_4_10__f_h1\/gclk5:A 1e-06
76 clknet_0_h1\/gclk5:12 clknet_0_h1\/gclk5:11 0.000471628
77 clknet_0_h1\/gclk5:12 h1/clkbuf_4_11__f_h1\/gclk5:A 1e-06
78 clknet_0_h1\/gclk5:12 h1/clkbuf_4_11__f_h1\/gclk5:A 1e-06
79 clknet_0_h1\/gclk5:12 h1/clkbuf_4_11__f_h1\/gclk5:A 1e-06
80 clknet_0_h1\/gclk5:12 h1/clkbuf_4_11__f_h1\/gclk5:A 1e-06
81 clknet_0_h1\/gclk5:12 h1/clkbuf_4_11__f_h1\/gclk5:A 1e-06
82 clknet_0_h1\/gclk5:11 h1/clkbuf_4_10__f_h1\/gclk5:A 1e-06
83 clknet_0_h1\/gclk5:13 clknet_0_h1\/gclk5:19 0.019689
84 clknet_0_h1\/gclk5:13 h1/clkbuf_4_12__f_h1\/gclk5:A 1e-06
85 clknet_0_h1\/gclk5:13 h1/clkbuf_4_12__f_h1\/gclk5:A 1e-06
86 clknet_0_h1\/gclk5:13 h1/clkbuf_4_12__f_h1\/gclk5:A 1e-06
87 clknet_0_h1\/gclk5:13 h1/clkbuf_4_12__f_h1\/gclk5:A 1e-06
88 clknet_0_h1\/gclk5:13 h1/clkbuf_4_12__f_h1\/gclk5:A 1e-06
89 clknet_0_h1\/gclk5:14 clknet_0_h1\/gclk5:18 0.00169801
90 clknet_0_h1\/gclk5:14 h1/clkbuf_4_13__f_h1\/gclk5:A 1e-06
91 clknet_0_h1\/gclk5:14 h1/clkbuf_4_13__f_h1\/gclk5:A 1e-06
92 clknet_0_h1\/gclk5:14 h1/clkbuf_4_13__f_h1\/gclk5:A 1e-06
93 clknet_0_h1\/gclk5:14 h1/clkbuf_4_13__f_h1\/gclk5:A 1e-06
94 clknet_0_h1\/gclk5:14 h1/clkbuf_4_13__f_h1\/gclk5:A 1e-06
95 clknet_0_h1\/gclk5:15 clknet_0_h1\/gclk5:22 0.000353721
96 clknet_0_h1\/gclk5:15 h1/clkbuf_4_14__f_h1\/gclk5:A 1e-06
97 clknet_0_h1\/gclk5:15 h1/clkbuf_4_14__f_h1\/gclk5:A 1e-06
98 clknet_0_h1\/gclk5:15 h1/clkbuf_4_14__f_h1\/gclk5:A 1e-06
99 clknet_0_h1\/gclk5:15 h1/clkbuf_4_14__f_h1\/gclk5:A 1e-06
100 clknet_0_h1\/gclk5:15 h1/clkbuf_4_14__f_h1\/gclk5:A 1e-06
101 clknet_0_h1\/gclk5:16 clknet_0_h1\/gclk5:22 0.000353721
102 clknet_0_h1\/gclk5:16 h1/clkbuf_4_15__f_h1\/gclk5:A 1e-06
103 clknet_0_h1\/gclk5:16 h1/clkbuf_4_15__f_h1\/gclk5:A 1e-06
104 clknet_0_h1\/gclk5:16 h1/clkbuf_4_15__f_h1\/gclk5:A 1e-06
105 clknet_0_h1\/gclk5:16 h1/clkbuf_4_15__f_h1\/gclk5:A 1e-06
106 clknet_0_h1\/gclk5:16 h1/clkbuf_4_15__f_h1\/gclk5:A 1e-06
107 clknet_0_h1\/gclk5:17 clknet_0_h1\/gclk5:8 0.0165318
108 clknet_0_h1\/gclk5:8 h1/clkbuf_0_h1\/gclk5:Z 1e-06
109 clknet_0_h1\/gclk5:18 clknet_0_h1\/gclk5:13 0.00169801
110 clknet_0_h1\/gclk5:13 h1/clkbuf_4_12__f_h1\/gclk5:A 1e-06
111 clknet_0_h1\/gclk5:19 clknet_0_h1\/gclk5:10 0.00897145
112 clknet_0_h1\/gclk5:10 h1/clkbuf_4_9__f_h1\/gclk5:A 1e-06
113 clknet_0_h1\/gclk5:20 clknet_0_h1\/gclk5:24 0.0201674
114 clknet_0_h1\/gclk5:21 clknet_0_h1\/gclk5:8 0.00858093
115 clknet_0_h1\/gclk5:8 h1/clkbuf_0_h1\/gclk5:Z 1e-06
116 clknet_0_h1\/gclk5:22 clknet_0_h1\/gclk5:18 0.0189763
117 clknet_0_h1\/gclk5:23 clknet_0_h1\/gclk5:21 0.0128061
118 clknet_0_h1\/gclk5:24 clknet_0_h1\/gclk5:3 3.5297e-05
119 clknet_0_h1\/gclk5:3 h1/clkbuf_4_6__f_h1\/gclk5:A 1e-06
*END

*D_NET clknet_4_0__leaf_h1\/gclk5 1.3451
*CONN
*I h1/ff100:CK I *D DFF_X1
*I h1/ff131:CK I *D DFF_X1
*I h1/ff28:CK I *D DFF_X1
*I h1/ff60:CK I *D DFF_X1
*I h1/ff65:CK I *D DFF_X1
*I h1/ff85:CK I *D DFF_X1
*I h1/clkbuf_4_0__f_h1\/gclk5:Z O *D CLKBUF_X3
*I clkload0:A I *D INV_X4
*CAP
1 clknet_4_0__leaf_h1\/gclk5:0 0.0590006
2 clknet_4_0__leaf_h1\/gclk5:1 0.0652577
3 clknet_4_0__leaf_h1\/gclk5:2 0.0989669
4 clknet_4_0__leaf_h1\/gclk5:3 0.121477
5 clknet_4_0__leaf_h1\/gclk5:4 0.0550171
6 clknet_4_0__leaf_h1\/gclk5:5 0.145096
7 clknet_4_0__leaf_h1\/gclk5:6 0.0741453
8 clknet_4_0__leaf_h1\/gclk5:7 0.11259
9 clknet_4_0__leaf_h1\/gclk5:8 0.232958
10 clknet_4_0__leaf_h1\/gclk5:9 0.165108
11 clknet_4_0__leaf_h1\/gclk5:10 0.215484
*RES
1 clknet_4_0__leaf_h1\/gclk5:0 clknet_4_0__leaf_h1\/gclk5:1 0.00561118
2 clknet_4_0__leaf_h1\/gclk5:0 h1/ff85:CK 1e-06
3 clknet_4_0__leaf_h1\/gclk5:0 h1/ff85:CK 1e-06
4 clknet_4_0__leaf_h1\/gclk5:1 h1/ff65:CK 1e-06
5 clknet_4_0__leaf_h1\/gclk5:1 h1/ff65:CK 1e-06
6 clknet_4_0__leaf_h1\/gclk5:1 clknet_4_0__leaf_h1\/gclk5:10 0.000595071
7 clknet_4_0__leaf_h1\/gclk5:1 h1/ff65:CK 1e-06
8 clknet_4_0__leaf_h1\/gclk5:2 clknet_4_0__leaf_h1\/gclk5:10 0.00941213
9 clknet_4_0__leaf_h1\/gclk5:2 h1/ff28:CK 1e-06
10 clknet_4_0__leaf_h1\/gclk5:2 h1/ff28:CK 1e-06
11 clknet_4_0__leaf_h1\/gclk5:3 clknet_4_0__leaf_h1\/gclk5:9 0.00106684
12 clknet_4_0__leaf_h1\/gclk5:3 clkload0:A 1e-06
13 clknet_4_0__leaf_h1\/gclk5:3 clkload0:A 1e-06
14 clknet_4_0__leaf_h1\/gclk5:4 clknet_4_0__leaf_h1\/gclk5:8 0.00523234
15 clknet_4_0__leaf_h1\/gclk5:4 h1/ff60:CK 1e-06
16 clknet_4_0__leaf_h1\/gclk5:4 h1/ff60:CK 1e-06
17 clknet_4_0__leaf_h1\/gclk5:5 clknet_4_0__leaf_h1\/gclk5:9 0.0137992
18 clknet_4_0__leaf_h1\/gclk5:5 h1/ff100:CK 1e-06
19 clknet_4_0__leaf_h1\/gclk5:5 h1/ff100:CK 1e-06
20 clknet_4_0__leaf_h1\/gclk5:6 clknet_4_0__leaf_h1\/gclk5:6 1e-06
21 clknet_4_0__leaf_h1\/gclk5:6 h1/clkbuf_4_0__f_h1\/gclk5:Z 1e-06
22 clknet_4_0__leaf_h1\/gclk5:6 h1/clkbuf_4_0__f_h1\/gclk5:Z 1e-06
23 clknet_4_0__leaf_h1\/gclk5:6 h1/clkbuf_4_0__f_h1\/gclk5:Z 1e-06
24 clknet_4_0__leaf_h1\/gclk5:7 clknet_4_0__leaf_h1\/gclk5:8 0.0107077
25 clknet_4_0__leaf_h1\/gclk5:7 h1/ff131:CK 1e-06
26 clknet_4_0__leaf_h1\/gclk5:7 h1/ff131:CK 1e-06
27 clknet_4_0__leaf_h1\/gclk5:8 clknet_4_0__leaf_h1\/gclk5:6 0.00621519
28 clknet_4_0__leaf_h1\/gclk5:6 h1/clkbuf_4_0__f_h1\/gclk5:Z 1e-06
29 clknet_4_0__leaf_h1\/gclk5:9 clknet_4_0__leaf_h1\/gclk5:6 0.000836316
30 clknet_4_0__leaf_h1\/gclk5:6 h1/clkbuf_4_0__f_h1\/gclk5:Z 1e-06
31 clknet_4_0__leaf_h1\/gclk5:10 clknet_4_0__leaf_h1\/gclk5:3 0.0104861
32 clknet_4_0__leaf_h1\/gclk5:3 clkload0:A 1e-06
*END

*D_NET clknet_4_1__leaf_h1\/gclk5 1.06528
*CONN
*I h1/ff113:CK I *D DFF_X1
*I h1/ff118:CK I *D DFF_X1
*I h1/ff136:CK I *D DFF_X1
*I h1/ff23:CK I *D DFF_X1
*I h1/ff40:CK I *D DFF_X1
*I h1/ff46:CK I *D DFF_X1
*I h1/ff80:CK I *D DFF_X1
*I h1/clkbuf_4_1__f_h1\/gclk5:Z O *D CLKBUF_X3
*I clkload1:A I *D INV_X4
*CAP
1 clknet_4_1__leaf_h1\/gclk5:0 0.121383
2 clknet_4_1__leaf_h1\/gclk5:1 0.105224
3 clknet_4_1__leaf_h1\/gclk5:2 0.164225
4 clknet_4_1__leaf_h1\/gclk5:3 0.0793314
5 clknet_4_1__leaf_h1\/gclk5:4 0.206277
6 clknet_4_1__leaf_h1\/gclk5:5 0.0590006
7 clknet_4_1__leaf_h1\/gclk5:6 0.0228674
8 clknet_4_1__leaf_h1\/gclk5:7 9.395e-05
9 clknet_4_1__leaf_h1\/gclk5:8 0.118847
10 clknet_4_1__leaf_h1\/gclk5:9 0.0491734
11 clknet_4_1__leaf_h1\/gclk5:10 0.138858
*RES
1 clknet_4_1__leaf_h1\/gclk5:0 clknet_4_1__leaf_h1\/gclk5:4 0.011544
2 clknet_4_1__leaf_h1\/gclk5:0 h1/ff46:CK 1e-06
3 clknet_4_1__leaf_h1\/gclk5:0 h1/ff46:CK 1e-06
4 clknet_4_1__leaf_h1\/gclk5:4 h1/ff136:CK 1e-06
5 clknet_4_1__leaf_h1\/gclk5:4 h1/ff136:CK 1e-06
6 clknet_4_1__leaf_h1\/gclk5:1 clknet_4_1__leaf_h1\/gclk5:2 0.0100072
7 clknet_4_1__leaf_h1\/gclk5:1 h1/ff80:CK 1e-06
8 clknet_4_1__leaf_h1\/gclk5:1 h1/ff80:CK 1e-06
9 clknet_4_1__leaf_h1\/gclk5:2 h1/ff40:CK 1e-06
10 clknet_4_1__leaf_h1\/gclk5:2 h1/ff40:CK 1e-06
11 clknet_4_1__leaf_h1\/gclk5:2 clknet_4_1__leaf_h1\/gclk5:3 0.00561118
12 clknet_4_1__leaf_h1\/gclk5:2 h1/ff40:CK 1e-06
13 clknet_4_1__leaf_h1\/gclk5:3 h1/ff23:CK 1e-06
14 clknet_4_1__leaf_h1\/gclk5:3 h1/ff23:CK 1e-06
15 clknet_4_1__leaf_h1\/gclk5:3 clknet_4_1__leaf_h1\/gclk5:9 0.00193353
16 clknet_4_1__leaf_h1\/gclk5:3 h1/ff23:CK 1e-06
17 clknet_4_1__leaf_h1\/gclk5:4 clknet_4_1__leaf_h1\/gclk5:9 0.00246249
18 clknet_4_1__leaf_h1\/gclk5:4 h1/ff136:CK 1e-06
19 clknet_4_1__leaf_h1\/gclk5:5 clknet_4_1__leaf_h1\/gclk5:4 0.00561118
20 clknet_4_1__leaf_h1\/gclk5:5 h1/ff118:CK 1e-06
21 clknet_4_1__leaf_h1\/gclk5:5 h1/ff118:CK 1e-06
22 clknet_4_1__leaf_h1\/gclk5:4 h1/ff136:CK 1e-06
23 clknet_4_1__leaf_h1\/gclk5:6 clknet_4_1__leaf_h1\/gclk5:10 0.00189422
24 clknet_4_1__leaf_h1\/gclk5:6 clkload1:A 1e-06
25 clknet_4_1__leaf_h1\/gclk5:6 clkload1:A 1e-06
26 clknet_4_1__leaf_h1\/gclk5:7 clknet_4_1__leaf_h1\/gclk5:7 1e-06
27 clknet_4_1__leaf_h1\/gclk5:7 h1/clkbuf_4_1__f_h1\/gclk5:Z 1e-06
28 clknet_4_1__leaf_h1\/gclk5:7 h1/clkbuf_4_1__f_h1\/gclk5:Z 1e-06
29 clknet_4_1__leaf_h1\/gclk5:7 h1/clkbuf_4_1__f_h1\/gclk5:Z 1e-06
30 clknet_4_1__leaf_h1\/gclk5:8 clknet_4_1__leaf_h1\/gclk5:10 0.0113028
31 clknet_4_1__leaf_h1\/gclk5:8 h1/ff113:CK 1e-06
32 clknet_4_1__leaf_h1\/gclk5:8 h1/ff113:CK 1e-06
33 clknet_4_1__leaf_h1\/gclk5:9 clknet_4_1__leaf_h1\/gclk5:6 0.000280559
34 clknet_4_1__leaf_h1\/gclk5:6 clkload1:A 1e-06
35 clknet_4_1__leaf_h1\/gclk5:10 clknet_4_1__leaf_h1\/gclk5:7 8.935e-06
36 clknet_4_1__leaf_h1\/gclk5:7 h1/clkbuf_4_1__f_h1\/gclk5:Z 1e-06
*END

*D_NET clknet_4_2__leaf_h1\/gclk5 1.23056
*CONN
*I h1/ff129:CK I *D DFF_X1
*I h1/ff137:CK I *D DFF_X1
*I h1/ff26:CK I *D DFF_X1
*I h1/ff31:CK I *D DFF_X1
*I h1/ff42:CK I *D DFF_X1
*I h1/ff54:CK I *D DFF_X1
*I h1/ff62:CK I *D DFF_X1
*I h1/ff82:CK I *D DFF_X1
*I h1/clkbuf_4_2__f_h1\/gclk5:Z O *D CLKBUF_X3
*I clkload2:A I *D INV_X2
*CAP
1 clknet_4_2__leaf_h1\/gclk5:0 0.121383
2 clknet_4_2__leaf_h1\/gclk5:1 0.0105224
3 clknet_4_2__leaf_h1\/gclk5:2 0.0462234
4 clknet_4_2__leaf_h1\/gclk5:3 0.0269637
5 clknet_4_2__leaf_h1\/gclk5:4 9.395e-05
6 clknet_4_2__leaf_h1\/gclk5:5 0.0462234
7 clknet_4_2__leaf_h1\/gclk5:6 0.105224
8 clknet_4_2__leaf_h1\/gclk5:7 0.105224
9 clknet_4_2__leaf_h1\/gclk5:8 0.105224
10 clknet_4_2__leaf_h1\/gclk5:9 0.210166
11 clknet_4_2__leaf_h1\/gclk5:10 0.216085
12 clknet_4_2__leaf_h1\/gclk5:11 0.0663287
13 clknet_4_2__leaf_h1\/gclk5:12 0.170895
*RES
1 clknet_4_2__leaf_h1\/gclk5:0 clknet_4_2__leaf_h1\/gclk5:10 0.011544
2 clknet_4_2__leaf_h1\/gclk5:0 h1/ff54:CK 1e-06
3 clknet_4_2__leaf_h1\/gclk5:0 h1/ff54:CK 1e-06
4 clknet_4_2__leaf_h1\/gclk5:1 clknet_4_2__leaf_h1\/gclk5:11 0.00100072
5 clknet_4_2__leaf_h1\/gclk5:1 h1/ff31:CK 1e-06
6 clknet_4_2__leaf_h1\/gclk5:1 h1/ff31:CK 1e-06
7 clknet_4_2__leaf_h1\/gclk5:2 clknet_4_2__leaf_h1\/gclk5:10 0.00439602
8 clknet_4_2__leaf_h1\/gclk5:2 h1/ff129:CK 1e-06
9 clknet_4_2__leaf_h1\/gclk5:2 h1/ff129:CK 1e-06
10 clknet_4_2__leaf_h1\/gclk5:3 clknet_4_2__leaf_h1\/gclk5:12 0.00186741
11 clknet_4_2__leaf_h1\/gclk5:3 clkload2:A 1e-06
12 clknet_4_2__leaf_h1\/gclk5:3 clkload2:A 1e-06
13 clknet_4_2__leaf_h1\/gclk5:4 clknet_4_2__leaf_h1\/gclk5:4 1e-06
14 clknet_4_2__leaf_h1\/gclk5:4 h1/clkbuf_4_2__f_h1\/gclk5:Z 1e-06
15 clknet_4_2__leaf_h1\/gclk5:4 h1/clkbuf_4_2__f_h1\/gclk5:Z 1e-06
16 clknet_4_2__leaf_h1\/gclk5:4 h1/clkbuf_4_2__f_h1\/gclk5:Z 1e-06
17 clknet_4_2__leaf_h1\/gclk5:5 clknet_4_2__leaf_h1\/gclk5:6 0.00439602
18 clknet_4_2__leaf_h1\/gclk5:5 h1/ff82:CK 1e-06
19 clknet_4_2__leaf_h1\/gclk5:5 h1/ff82:CK 1e-06
20 clknet_4_2__leaf_h1\/gclk5:6 h1/ff62:CK 1e-06
21 clknet_4_2__leaf_h1\/gclk5:6 h1/ff62:CK 1e-06
22 clknet_4_2__leaf_h1\/gclk5:6 clknet_4_2__leaf_h1\/gclk5:7 0.00561118
23 clknet_4_2__leaf_h1\/gclk5:6 h1/ff62:CK 1e-06
24 clknet_4_2__leaf_h1\/gclk5:7 h1/ff42:CK 1e-06
25 clknet_4_2__leaf_h1\/gclk5:7 h1/ff42:CK 1e-06
26 clknet_4_2__leaf_h1\/gclk5:7 clknet_4_2__leaf_h1\/gclk5:8 0.00439602
27 clknet_4_2__leaf_h1\/gclk5:7 h1/ff42:CK 1e-06
28 clknet_4_2__leaf_h1\/gclk5:8 h1/ff26:CK 1e-06
29 clknet_4_2__leaf_h1\/gclk5:8 h1/ff26:CK 1e-06
30 clknet_4_2__leaf_h1\/gclk5:8 clknet_4_2__leaf_h1\/gclk5:9 0.00561118
31 clknet_4_2__leaf_h1\/gclk5:8 h1/ff26:CK 1e-06
32 clknet_4_2__leaf_h1\/gclk5:9 h1/ff137:CK 1e-06
33 clknet_4_2__leaf_h1\/gclk5:9 h1/ff137:CK 1e-06
34 clknet_4_2__leaf_h1\/gclk5:9 clknet_4_2__leaf_h1\/gclk5:12 0.0143764
35 clknet_4_2__leaf_h1\/gclk5:9 h1/ff137:CK 1e-06
36 clknet_4_2__leaf_h1\/gclk5:10 clknet_4_2__leaf_h1\/gclk5:11 0.00461046
37 clknet_4_2__leaf_h1\/gclk5:11 clknet_4_2__leaf_h1\/gclk5:3 0.00069693
38 clknet_4_2__leaf_h1\/gclk5:3 clkload2:A 1e-06
39 clknet_4_2__leaf_h1\/gclk5:12 clknet_4_2__leaf_h1\/gclk5:4 8.935e-06
40 clknet_4_2__leaf_h1\/gclk5:4 h1/clkbuf_4_2__f_h1\/gclk5:Z 1e-06
*END

*D_NET clknet_4_3__leaf_h1\/gclk5 1.68828
*CONN
*I h1/ff102:CK I *D DFF_X1
*I h1/ff11:CK I *D DFF_X1
*I h1/ff12:CK I *D DFF_X1
*I h1/ff15:CK I *D DFF_X1
*I h1/ff2:CK I *D DFF_X1
*I h1/ff38:CK I *D DFF_X1
*I h1/ff47:CK I *D DFF_X1
*I h1/ff66:CK I *D DFF_X1
*I h1/ff75:CK I *D DFF_X1
*I h1/ff89:CK I *D DFF_X1
*I h1/ff94:CK I *D DFF_X1
*I h1/clkbuf_4_3__f_h1\/gclk5:Z O *D CLKBUF_X3
*I clkload3:A I *D INV_X1
*CAP
1 clknet_4_3__leaf_h1\/gclk5:0 0.167607
2 clknet_4_3__leaf_h1\/gclk5:1 0.0462234
3 clknet_4_3__leaf_h1\/gclk5:2 0.0590006
4 clknet_4_3__leaf_h1\/gclk5:3 0.180384
5 clknet_4_3__leaf_h1\/gclk5:4 0.0462234
6 clknet_4_3__leaf_h1\/gclk5:5 0.105224
7 clknet_4_3__leaf_h1\/gclk5:6 0.23946
8 clknet_4_3__leaf_h1\/gclk5:7 0.151372
9 clknet_4_3__leaf_h1\/gclk5:8 0.226607
10 clknet_4_3__leaf_h1\/gclk5:9 0.0293876
11 clknet_4_3__leaf_h1\/gclk5:10 0.112195
12 clknet_4_3__leaf_h1\/gclk5:11 0.0129463
13 clknet_4_3__leaf_h1\/gclk5:12 0.0460543
14 clknet_4_3__leaf_h1\/gclk5:13 0.15109
15 clknet_4_3__leaf_h1\/gclk5:14 0.114506
*RES
1 clknet_4_3__leaf_h1\/gclk5:0 clknet_4_3__leaf_h1\/gclk5:6 0.011544
2 clknet_4_3__leaf_h1\/gclk5:0 h1/ff94:CK 1e-06
3 clknet_4_3__leaf_h1\/gclk5:0 h1/ff94:CK 1e-06
4 clknet_4_3__leaf_h1\/gclk5:6 h1/ff47:CK 1e-06
5 clknet_4_3__leaf_h1\/gclk5:6 h1/ff47:CK 1e-06
6 clknet_4_3__leaf_h1\/gclk5:1 clknet_4_3__leaf_h1\/gclk5:0 0.00439602
7 clknet_4_3__leaf_h1\/gclk5:1 h1/ff75:CK 1e-06
8 clknet_4_3__leaf_h1\/gclk5:1 h1/ff75:CK 1e-06
9 clknet_4_3__leaf_h1\/gclk5:0 h1/ff94:CK 1e-06
10 clknet_4_3__leaf_h1\/gclk5:2 clknet_4_3__leaf_h1\/gclk5:3 0.00561118
11 clknet_4_3__leaf_h1\/gclk5:2 h1/ff38:CK 1e-06
12 clknet_4_3__leaf_h1\/gclk5:2 h1/ff38:CK 1e-06
13 clknet_4_3__leaf_h1\/gclk5:3 h1/ff2:CK 1e-06
14 clknet_4_3__leaf_h1\/gclk5:3 h1/ff2:CK 1e-06
15 clknet_4_3__leaf_h1\/gclk5:3 clknet_4_3__leaf_h1\/gclk5:8 0.011544
16 clknet_4_3__leaf_h1\/gclk5:3 h1/ff2:CK 1e-06
17 clknet_4_3__leaf_h1\/gclk5:8 h1/ff11:CK 1e-06
18 clknet_4_3__leaf_h1\/gclk5:8 h1/ff11:CK 1e-06
19 clknet_4_3__leaf_h1\/gclk5:4 clknet_4_3__leaf_h1\/gclk5:5 0.00439602
20 clknet_4_3__leaf_h1\/gclk5:4 h1/ff89:CK 1e-06
21 clknet_4_3__leaf_h1\/gclk5:4 h1/ff89:CK 1e-06
22 clknet_4_3__leaf_h1\/gclk5:5 h1/ff66:CK 1e-06
23 clknet_4_3__leaf_h1\/gclk5:5 h1/ff66:CK 1e-06
24 clknet_4_3__leaf_h1\/gclk5:5 clknet_4_3__leaf_h1\/gclk5:6 0.00561118
25 clknet_4_3__leaf_h1\/gclk5:5 h1/ff66:CK 1e-06
26 clknet_4_3__leaf_h1\/gclk5:6 h1/ff47:CK 1e-06
27 clknet_4_3__leaf_h1\/gclk5:6 clknet_4_3__leaf_h1\/gclk5:14 0.00561833
28 clknet_4_3__leaf_h1\/gclk5:6 h1/ff47:CK 1e-06
29 clknet_4_3__leaf_h1\/gclk5:7 clknet_4_3__leaf_h1\/gclk5:14 0.00438887
30 clknet_4_3__leaf_h1\/gclk5:7 h1/ff15:CK 1e-06
31 clknet_4_3__leaf_h1\/gclk5:7 h1/ff15:CK 1e-06
32 clknet_4_3__leaf_h1\/gclk5:8 clknet_4_3__leaf_h1\/gclk5:7 0.0100072
33 clknet_4_3__leaf_h1\/gclk5:8 h1/ff11:CK 1e-06
34 clknet_4_3__leaf_h1\/gclk5:7 h1/ff15:CK 1e-06
35 clknet_4_3__leaf_h1\/gclk5:9 clknet_4_3__leaf_h1\/gclk5:10 0.00191209
36 clknet_4_3__leaf_h1\/gclk5:9 clkload3:A 1e-06
37 clknet_4_3__leaf_h1\/gclk5:9 clkload3:A 1e-06
38 clknet_4_3__leaf_h1\/gclk5:10 h1/clkbuf_4_3__f_h1\/gclk5:Z 1e-06
39 clknet_4_3__leaf_h1\/gclk5:10 h1/clkbuf_4_3__f_h1\/gclk5:Z 1e-06
40 clknet_4_3__leaf_h1\/gclk5:10 clknet_4_3__leaf_h1\/gclk5:10 1e-06
41 clknet_4_3__leaf_h1\/gclk5:10 h1/clkbuf_4_3__f_h1\/gclk5:Z 1e-06
42 clknet_4_3__leaf_h1\/gclk5:10 h1/clkbuf_4_3__f_h1\/gclk5:Z 1e-06
43 clknet_4_3__leaf_h1\/gclk5:11 clknet_4_3__leaf_h1\/gclk5:13 0.00123124
44 clknet_4_3__leaf_h1\/gclk5:11 h1/ff12:CK 1e-06
45 clknet_4_3__leaf_h1\/gclk5:11 h1/ff12:CK 1e-06
46 clknet_4_3__leaf_h1\/gclk5:12 clknet_4_3__leaf_h1\/gclk5:13 0.00437994
47 clknet_4_3__leaf_h1\/gclk5:12 h1/ff102:CK 1e-06
48 clknet_4_3__leaf_h1\/gclk5:12 h1/ff102:CK 1e-06
49 clknet_4_3__leaf_h1\/gclk5:13 clknet_4_3__leaf_h1\/gclk5:10 0.00875809
50 clknet_4_3__leaf_h1\/gclk5:10 h1/clkbuf_4_3__f_h1\/gclk5:Z 1e-06
51 clknet_4_3__leaf_h1\/gclk5:14 clknet_4_3__leaf_h1\/gclk5:9 0.000882778
52 clknet_4_3__leaf_h1\/gclk5:9 clkload3:A 1e-06
*END
