*SPEF "ieee 1481-1999"
*DESIGN "multi_sink"
*DATE "11:11:11 Fri 11 11, 1111"
*VENDOR "The OpenROAD Project"
*PROGRAM "OpenROAD"
*VERSION "1.0"
*DESIGN_FLOW "NAME_SCOPE LOCAL" "PIN_CAP NONE"
*DIVIDER /
*DELIMITER :
*BUS_DELIMITER []
*T_UNIT 1 NS
*C_UNIT 1 FF
*R_UNIT 1 KOHM
*L_UNIT 1 HENRY

*PORTS
clk I

*D_NET clk 1.23446
*CONN
*P clk I
*I clkbuf_0_clk:A I *D CLKBUF_X3
*CAP
1 clk:0 0.617228
2 clk:1 0.617228
*RES
1 clk:0 clk:0 1e-06
2 clk:0 clk 1e-06
3 clk:0 clk 1e-06
4 clk:0 clk 1e-06
5 clk:0 clk 1e-06
6 clk:0 clk 1e-06
7 clk:1 clk:0 0.0254063
8 clk:1 clkbuf_0_clk:A 1e-06
9 clk:1 clkbuf_0_clk:A 1e-06
10 clk:1 clkbuf_0_clk:A 1e-06
11 clk:1 clkbuf_0_clk:A 1e-06
12 clk:1 clkbuf_0_clk:A 1e-06
13 clk:0 clk 1e-06
*END

*D_NET gclk1 0.16457
*CONN
*I gclk1:GCK O *D CLKGATE_X1
*I clkbuf_0_gclk1:A I *D CLKBUF_X3
*CAP
1 gclk1:0 0.0822849
2 gclk1:1 0.0822849
*RES
1 gclk1:0 gclk1:1 0.00338701
2 gclk1:0 clkbuf_0_gclk1:A 1e-06
3 gclk1:0 clkbuf_0_gclk1:A 1e-06
4 gclk1:0 clkbuf_0_gclk1:A 1e-06
5 gclk1:0 clkbuf_0_gclk1:A 1e-06
6 gclk1:0 clkbuf_0_gclk1:A 1e-06
7 gclk1:1 gclk1:GCK 1e-06
8 gclk1:1 gclk1:GCK 1e-06
9 gclk1:1 gclk1:GCK 1e-06
10 gclk1:1 gclk1:GCK 1e-06
11 gclk1:1 gclk1:GCK 1e-06
12 gclk1:1 gclk1:1 1e-06
13 gclk1:1 gclk1:GCK 1e-06
14 gclk1:1 gclk1:GCK 1e-06
*END

*D_NET gclk3 0.164533
*CONN
*I gclk3:GCK O *D CLKGATE_X1
*I clkbuf_0_gclk3:A I *D CLKBUF_X3
*CAP
1 gclk3:0 0.0822667
2 gclk3:1 0.0822667
*RES
1 gclk3:0 gclk3:1 0.00338626
2 gclk3:0 clkbuf_0_gclk3:A 1e-06
3 gclk3:0 clkbuf_0_gclk3:A 1e-06
4 gclk3:0 clkbuf_0_gclk3:A 1e-06
5 gclk3:0 clkbuf_0_gclk3:A 1e-06
6 gclk3:0 clkbuf_0_gclk3:A 1e-06
7 gclk3:1 gclk3:GCK 1e-06
8 gclk3:1 gclk3:GCK 1e-06
9 gclk3:1 gclk3:GCK 1e-06
10 gclk3:1 gclk3:GCK 1e-06
11 gclk3:1 gclk3:GCK 1e-06
12 gclk3:1 gclk3:1 1e-06
13 gclk3:1 gclk3:GCK 1e-06
14 gclk3:1 gclk3:GCK 1e-06
*END

*D_NET gclk4 0.998476
*CONN
*I gclk4:GCK O *D CLKGATE_X1
*I clkbuf_0_gclk4:A I *D CLKBUF_X3
*I delaybuf_1_core:A I *D CLKBUF_X3
*CAP
1 gclk4:0 0.0382598
2 gclk4:1 0.0239192
3 gclk4:2 0.437059
4 gclk4:3 0.499238
*RES
1 gclk4:0 gclk4:3 0.00157485
2 gclk4:0 delaybuf_1_core:A 1e-06
3 gclk4:0 delaybuf_1_core:A 1e-06
4 gclk4:0 delaybuf_1_core:A 1e-06
5 gclk4:0 delaybuf_1_core:A 1e-06
6 gclk4:0 delaybuf_1_core:A 1e-06
7 gclk4:1 gclk4:1 1e-06
8 gclk4:1 gclk4:GCK 1e-06
9 gclk4:1 gclk4:GCK 1e-06
10 gclk4:1 gclk4:GCK 1e-06
11 gclk4:1 gclk4:GCK 1e-06
12 gclk4:1 gclk4:GCK 1e-06
13 gclk4:1 gclk4:GCK 1e-06
14 gclk4:2 gclk4:3 0.0179902
15 gclk4:2 clkbuf_0_gclk4:A 1e-06
16 gclk4:2 clkbuf_0_gclk4:A 1e-06
17 gclk4:2 clkbuf_0_gclk4:A 1e-06
18 gclk4:2 clkbuf_0_gclk4:A 1e-06
19 gclk4:2 clkbuf_0_gclk4:A 1e-06
20 gclk4:3 gclk4:1 0.000984561
21 gclk4:1 gclk4:GCK 1e-06
*END

*D_NET hi_gclk2 0.16457
*CONN
*I hi_inst\/gclk2_inst:GCK O *D CLKGATE_X1
*I clkbuf_0_hi_gclk2:A I *D CLKBUF_X3
*CAP
1 hi_gclk2:0 0.0822849
2 hi_gclk2:1 0.0822849
*RES
1 hi_gclk2:0 hi_gclk2:1 0.00338701
2 hi_gclk2:0 clkbuf_0_hi_gclk2:A 1e-06
3 hi_gclk2:0 clkbuf_0_hi_gclk2:A 1e-06
4 hi_gclk2:0 clkbuf_0_hi_gclk2:A 1e-06
5 hi_gclk2:0 clkbuf_0_hi_gclk2:A 1e-06
6 hi_gclk2:0 clkbuf_0_hi_gclk2:A 1e-06
7 hi_gclk2:1 hi_inst\/gclk2_inst:GCK 1e-06
8 hi_gclk2:1 hi_inst\/gclk2_inst:GCK 1e-06
9 hi_gclk2:1 hi_inst\/gclk2_inst:GCK 1e-06
10 hi_gclk2:1 hi_inst\/gclk2_inst:GCK 1e-06
11 hi_gclk2:1 hi_inst\/gclk2_inst:GCK 1e-06
12 hi_gclk2:1 hi_gclk2:1 1e-06
13 hi_gclk2:1 hi_inst\/gclk2_inst:GCK 1e-06
14 hi_gclk2:1 hi_inst\/gclk2_inst:GCK 1e-06
*END

*D_NET hi_gclk5 0.32695
*CONN
*I hi_gclk5:GCK O *D CLKGATE_X1
*I clkbuf_0_hi_gclk5:A I *D CLKBUF_X3
*CAP
1 hi_gclk5:0 0.163475
2 hi_gclk5:1 0.163475
*RES
1 hi_gclk5:0 hi_gclk5:1 0.00672896
2 hi_gclk5:0 clkbuf_0_hi_gclk5:A 1e-06
3 hi_gclk5:0 clkbuf_0_hi_gclk5:A 1e-06
4 hi_gclk5:0 clkbuf_0_hi_gclk5:A 1e-06
5 hi_gclk5:0 clkbuf_0_hi_gclk5:A 1e-06
6 hi_gclk5:0 clkbuf_0_hi_gclk5:A 1e-06
7 hi_gclk5:1 hi_gclk5:GCK 1e-06
8 hi_gclk5:1 hi_gclk5:GCK 1e-06
9 hi_gclk5:1 hi_gclk5:GCK 1e-06
10 hi_gclk5:1 hi_gclk5:GCK 1e-06
11 hi_gclk5:1 hi_gclk5:GCK 1e-06
12 hi_gclk5:1 hi_gclk5:1 1e-06
13 hi_gclk5:1 hi_gclk5:GCK 1e-06
14 hi_gclk5:1 hi_gclk5:GCK 1e-06
*END

*D_NET gclk4_regs 0.038132
*CONN
*I clkbuf_regs_0_core:Z O *D CLKBUF_X3
*I clkbuf_0_gclk4_regs:A I *D CLKBUF_X3
*CAP
1 gclk4_regs:0 0.019066
2 gclk4_regs:1 0.019066
*RES
1 gclk4_regs:0 gclk4_regs:1 0.000784795
2 gclk4_regs:0 clkbuf_0_gclk4_regs:A 1e-06
3 gclk4_regs:0 clkbuf_0_gclk4_regs:A 1e-06
4 gclk4_regs:0 clkbuf_0_gclk4_regs:A 1e-06
5 gclk4_regs:0 clkbuf_0_gclk4_regs:A 1e-06
6 gclk4_regs:0 clkbuf_0_gclk4_regs:A 1e-06
7 gclk4_regs:1 clkbuf_regs_0_core:Z 1e-06
8 gclk4_regs:1 clkbuf_regs_0_core:Z 1e-06
9 gclk4_regs:1 clkbuf_regs_0_core:Z 1e-06
10 gclk4_regs:1 clkbuf_regs_0_core:Z 1e-06
11 gclk4_regs:1 clkbuf_regs_0_core:Z 1e-06
12 gclk4_regs:1 gclk4_regs:1 1e-06
13 gclk4_regs:1 clkbuf_regs_0_core:Z 1e-06
14 gclk4_regs:1 clkbuf_regs_0_core:Z 1e-06
*END

*D_NET clknet_0_clk 0.763772
*CONN
*I clkbuf_0_clk:Z O *D CLKBUF_X3
*I clkbuf_1_0__f_clk:A I *D CLKBUF_X3
*I delaybuf_6_core:A I *D CLKBUF_X3
*CAP
1 clknet_0_clk:0 0.260082
2 clknet_0_clk:1 0.10739
3 clknet_0_clk:2 0.0144135
4 clknet_0_clk:3 0.381886
*RES
1 clknet_0_clk:0 clknet_0_clk:3 0.0107055
2 clknet_0_clk:0 clkbuf_1_0__f_clk:A 1e-06
3 clknet_0_clk:0 clkbuf_1_0__f_clk:A 1e-06
4 clknet_0_clk:0 clkbuf_1_0__f_clk:A 1e-06
5 clknet_0_clk:0 clkbuf_1_0__f_clk:A 1e-06
6 clknet_0_clk:0 clkbuf_1_0__f_clk:A 1e-06
7 clknet_0_clk:1 clknet_0_clk:3 0.00442039
8 clknet_0_clk:1 delaybuf_6_core:A 1e-06
9 clknet_0_clk:1 delaybuf_6_core:A 1e-06
10 clknet_0_clk:1 delaybuf_6_core:A 1e-06
11 clknet_0_clk:1 delaybuf_6_core:A 1e-06
12 clknet_0_clk:1 delaybuf_6_core:A 1e-06
13 clknet_0_clk:2 clknet_0_clk:2 1e-06
14 clknet_0_clk:2 clkbuf_0_clk:Z 1e-06
15 clknet_0_clk:2 clkbuf_0_clk:Z 1e-06
16 clknet_0_clk:2 clkbuf_0_clk:Z 1e-06
17 clknet_0_clk:2 clkbuf_0_clk:Z 1e-06
18 clknet_0_clk:2 clkbuf_0_clk:Z 1e-06
19 clknet_0_clk:2 clkbuf_0_clk:Z 1e-06
20 clknet_0_clk:3 clknet_0_clk:2 0.00059329
21 clknet_0_clk:2 clkbuf_0_clk:Z 1e-06
*END

*D_NET clknet_1_0__leaf_clk 0.447367
*CONN
*I gclk4:CK I *D CLKGATE_X1
*I clkbuf_1_0__f_clk:Z O *D CLKBUF_X3
*I delaybuf_3_core:A I *D CLKBUF_X3
*CAP
1 clknet_1_0__leaf_clk:0 0.134028
2 clknet_1_0__leaf_clk:1 0.223684
3 clknet_1_0__leaf_clk:2 0.0896559
*RES
1 clknet_1_0__leaf_clk:0 clknet_1_0__leaf_clk:1 0.00551685
2 clknet_1_0__leaf_clk:0 gclk4:CK 1e-06
3 clknet_1_0__leaf_clk:0 gclk4:CK 1e-06
4 clknet_1_0__leaf_clk:0 gclk4:CK 1e-06
5 clknet_1_0__leaf_clk:0 gclk4:CK 1e-06
6 clknet_1_0__leaf_clk:0 gclk4:CK 1e-06
7 clknet_1_0__leaf_clk:1 delaybuf_3_core:A 1e-06
8 clknet_1_0__leaf_clk:1 delaybuf_3_core:A 1e-06
9 clknet_1_0__leaf_clk:1 delaybuf_3_core:A 1e-06
10 clknet_1_0__leaf_clk:1 delaybuf_3_core:A 1e-06
11 clknet_1_0__leaf_clk:1 delaybuf_3_core:A 1e-06
12 clknet_1_0__leaf_clk:1 clknet_1_0__leaf_clk:2 0.00369041
13 clknet_1_0__leaf_clk:1 delaybuf_3_core:A 1e-06
14 clknet_1_0__leaf_clk:2 clkbuf_1_0__f_clk:Z 1e-06
15 clknet_1_0__leaf_clk:2 clkbuf_1_0__f_clk:Z 1e-06
16 clknet_1_0__leaf_clk:2 clkbuf_1_0__f_clk:Z 1e-06
17 clknet_1_0__leaf_clk:2 clkbuf_1_0__f_clk:Z 1e-06
18 clknet_1_0__leaf_clk:2 clkbuf_1_0__f_clk:Z 1e-06
19 clknet_1_0__leaf_clk:2 clknet_1_0__leaf_clk:2 1e-06
20 clknet_1_0__leaf_clk:2 clkbuf_1_0__f_clk:Z 1e-06
21 clknet_1_0__leaf_clk:2 clkbuf_1_0__f_clk:Z 1e-06
*END

*D_NET clknet_1_1__leaf_clk 0.505861
*CONN
*I hi_gclk5:CK I *D CLKGATE_X1
*I clkbuf_1_1__f_clk:Z O *D CLKBUF_X3
*I delaybuf_0_core:A I *D CLKBUF_X3
*CAP
1 clknet_1_1__leaf_clk:0 0.0314361
2 clknet_1_1__leaf_clk:1 0.118684
3 clknet_1_1__leaf_clk:2 0.102811
4 clknet_1_1__leaf_clk:3 0.25293
*RES
1 clknet_1_1__leaf_clk:0 clknet_1_1__leaf_clk:3 0.00129397
2 clknet_1_1__leaf_clk:0 delaybuf_0_core:A 1e-06
3 clknet_1_1__leaf_clk:0 delaybuf_0_core:A 1e-06
4 clknet_1_1__leaf_clk:0 delaybuf_0_core:A 1e-06
5 clknet_1_1__leaf_clk:0 delaybuf_0_core:A 1e-06
6 clknet_1_1__leaf_clk:0 delaybuf_0_core:A 1e-06
7 clknet_1_1__leaf_clk:1 clknet_1_1__leaf_clk:1 1e-06
8 clknet_1_1__leaf_clk:1 clkbuf_1_1__f_clk:Z 1e-06
9 clknet_1_1__leaf_clk:1 clkbuf_1_1__f_clk:Z 1e-06
10 clknet_1_1__leaf_clk:1 clkbuf_1_1__f_clk:Z 1e-06
11 clknet_1_1__leaf_clk:1 clkbuf_1_1__f_clk:Z 1e-06
12 clknet_1_1__leaf_clk:1 clkbuf_1_1__f_clk:Z 1e-06
13 clknet_1_1__leaf_clk:1 clkbuf_1_1__f_clk:Z 1e-06
14 clknet_1_1__leaf_clk:2 clknet_1_1__leaf_clk:3 0.00423189
15 clknet_1_1__leaf_clk:2 hi_gclk5:CK 1e-06
16 clknet_1_1__leaf_clk:2 hi_gclk5:CK 1e-06
17 clknet_1_1__leaf_clk:2 hi_gclk5:CK 1e-06
18 clknet_1_1__leaf_clk:2 hi_gclk5:CK 1e-06
19 clknet_1_1__leaf_clk:2 hi_gclk5:CK 1e-06
20 clknet_1_1__leaf_clk:3 clknet_1_1__leaf_clk:1 0.00488525
21 clknet_1_1__leaf_clk:1 clkbuf_1_1__f_clk:Z 1e-06
*END

*D_NET clknet_0_hi_gclk2 3.60521
*CONN
*I clkbuf_0_hi_gclk2:Z O *D CLKBUF_X3
*I clkbuf_2_0__f_hi_gclk2:A I *D CLKBUF_X3
*I clkbuf_2_1__f_hi_gclk2:A I *D CLKBUF_X3
*I clkbuf_2_2__f_hi_gclk2:A I *D CLKBUF_X3
*I clkbuf_2_3__f_hi_gclk2:A I *D CLKBUF_X3
*CAP
1 clknet_0_hi_gclk2:0 0.382707
2 clknet_0_hi_gclk2:1 0.128153
3 clknet_0_hi_gclk2:2 0.780904
4 clknet_0_hi_gclk2:3 0.142092
5 clknet_0_hi_gclk2:4 0.36875
6 clknet_0_hi_gclk2:5 0.88928
7 clknet_0_hi_gclk2:6 0.913326
*RES
1 clknet_0_hi_gclk2:0 clknet_0_hi_gclk2:6 0.015753
2 clknet_0_hi_gclk2:0 clkbuf_2_1__f_hi_gclk2:A 1e-06
3 clknet_0_hi_gclk2:0 clkbuf_2_1__f_hi_gclk2:A 1e-06
4 clknet_0_hi_gclk2:0 clkbuf_2_1__f_hi_gclk2:A 1e-06
5 clknet_0_hi_gclk2:0 clkbuf_2_1__f_hi_gclk2:A 1e-06
6 clknet_0_hi_gclk2:0 clkbuf_2_1__f_hi_gclk2:A 1e-06
7 clknet_0_hi_gclk2:1 clknet_0_hi_gclk2:6 0.00527502
8 clknet_0_hi_gclk2:1 clkbuf_2_0__f_hi_gclk2:A 1e-06
9 clknet_0_hi_gclk2:1 clkbuf_2_0__f_hi_gclk2:A 1e-06
10 clknet_0_hi_gclk2:1 clkbuf_2_0__f_hi_gclk2:A 1e-06
11 clknet_0_hi_gclk2:1 clkbuf_2_0__f_hi_gclk2:A 1e-06
12 clknet_0_hi_gclk2:1 clkbuf_2_0__f_hi_gclk2:A 1e-06
13 clknet_0_hi_gclk2:2 clknet_0_hi_gclk2:2 1e-06
14 clknet_0_hi_gclk2:2 clkbuf_0_hi_gclk2:Z 1e-06
15 clknet_0_hi_gclk2:2 clkbuf_0_hi_gclk2:Z 1e-06
16 clknet_0_hi_gclk2:2 clkbuf_0_hi_gclk2:Z 1e-06
17 clknet_0_hi_gclk2:2 clkbuf_0_hi_gclk2:Z 1e-06
18 clknet_0_hi_gclk2:2 clkbuf_0_hi_gclk2:Z 1e-06
19 clknet_0_hi_gclk2:2 clkbuf_0_hi_gclk2:Z 1e-06
20 clknet_0_hi_gclk2:3 clknet_0_hi_gclk2:5 0.00584879
21 clknet_0_hi_gclk2:3 clkbuf_2_2__f_hi_gclk2:A 1e-06
22 clknet_0_hi_gclk2:3 clkbuf_2_2__f_hi_gclk2:A 1e-06
23 clknet_0_hi_gclk2:3 clkbuf_2_2__f_hi_gclk2:A 1e-06
24 clknet_0_hi_gclk2:3 clkbuf_2_2__f_hi_gclk2:A 1e-06
25 clknet_0_hi_gclk2:3 clkbuf_2_2__f_hi_gclk2:A 1e-06
26 clknet_0_hi_gclk2:4 clknet_0_hi_gclk2:5 0.0151785
27 clknet_0_hi_gclk2:4 clkbuf_2_3__f_hi_gclk2:A 1e-06
28 clknet_0_hi_gclk2:4 clkbuf_2_3__f_hi_gclk2:A 1e-06
29 clknet_0_hi_gclk2:4 clkbuf_2_3__f_hi_gclk2:A 1e-06
30 clknet_0_hi_gclk2:4 clkbuf_2_3__f_hi_gclk2:A 1e-06
31 clknet_0_hi_gclk2:4 clkbuf_2_3__f_hi_gclk2:A 1e-06
32 clknet_0_hi_gclk2:5 clknet_0_hi_gclk2:2 0.0155772
33 clknet_0_hi_gclk2:2 clkbuf_0_hi_gclk2:Z 1e-06
34 clknet_0_hi_gclk2:6 clknet_0_hi_gclk2:2 0.0165663
35 clknet_0_hi_gclk2:2 clkbuf_0_hi_gclk2:Z 1e-06
*END

*D_NET clknet_2_0__leaf_hi_gclk2 1.45228
*CONN
*I h1\/ff150:CK I *D DFF_X1
*I h1\/ff163:CK I *D DFF_X1
*I h1\/ff168:CK I *D DFF_X1
*I h1\/ff170:CK I *D DFF_X1
*I h1\/ff187:CK I *D DFF_X1
*I h1\/ff202:CK I *D DFF_X1
*I h1\/ff206:CK I *D DFF_X1
*I clkbuf_2_0__f_hi_gclk2:Z O *D CLKBUF_X3
*I clkload0:A I *D INV_X2
*CAP
1 clknet_2_0__leaf_hi_gclk2:0 0.0898162
2 clknet_2_0__leaf_hi_gclk2:1 0.109452
3 clknet_2_0__leaf_hi_gclk2:2 9.395e-05
4 clknet_2_0__leaf_hi_gclk2:3 0.226607
5 clknet_2_0__leaf_hi_gclk2:4 0.163379
6 clknet_2_0__leaf_hi_gclk2:5 0.226607
7 clknet_2_0__leaf_hi_gclk2:6 0.226607
8 clknet_2_0__leaf_hi_gclk2:7 0.0462234
9 clknet_2_0__leaf_hi_gclk2:8 0.226607
10 clknet_2_0__leaf_hi_gclk2:9 0.136885
*RES
1 clknet_2_0__leaf_hi_gclk2:0 clknet_2_0__leaf_hi_gclk2:1 0.00854186
2 clknet_2_0__leaf_hi_gclk2:0 h1\/ff168:CK 1e-06
3 clknet_2_0__leaf_hi_gclk2:0 h1\/ff168:CK 1e-06
4 clknet_2_0__leaf_hi_gclk2:1 clkload0:A 1e-06
5 clknet_2_0__leaf_hi_gclk2:1 clkload0:A 1e-06
6 clknet_2_0__leaf_hi_gclk2:1 clknet_2_0__leaf_hi_gclk2:9 0.00186741
7 clknet_2_0__leaf_hi_gclk2:1 clkload0:A 1e-06
8 clknet_2_0__leaf_hi_gclk2:2 clknet_2_0__leaf_hi_gclk2:2 1e-06
9 clknet_2_0__leaf_hi_gclk2:2 clkbuf_2_0__f_hi_gclk2:Z 1e-06
10 clknet_2_0__leaf_hi_gclk2:2 clkbuf_2_0__f_hi_gclk2:Z 1e-06
11 clknet_2_0__leaf_hi_gclk2:2 clkbuf_2_0__f_hi_gclk2:Z 1e-06
12 clknet_2_0__leaf_hi_gclk2:3 clknet_2_0__leaf_hi_gclk2:4 0.00439602
13 clknet_2_0__leaf_hi_gclk2:3 h1\/ff202:CK 1e-06
14 clknet_2_0__leaf_hi_gclk2:3 h1\/ff202:CK 1e-06
15 clknet_2_0__leaf_hi_gclk2:4 h1\/ff163:CK 1e-06
16 clknet_2_0__leaf_hi_gclk2:4 h1\/ff163:CK 1e-06
17 clknet_2_0__leaf_hi_gclk2:4 clknet_2_0__leaf_hi_gclk2:9 0.0111419
18 clknet_2_0__leaf_hi_gclk2:4 h1\/ff163:CK 1e-06
19 clknet_2_0__leaf_hi_gclk2:5 clknet_2_0__leaf_hi_gclk2:6 0.00439602
20 clknet_2_0__leaf_hi_gclk2:5 h1\/ff187:CK 1e-06
21 clknet_2_0__leaf_hi_gclk2:5 h1\/ff187:CK 1e-06
22 clknet_2_0__leaf_hi_gclk2:6 h1\/ff150:CK 1e-06
23 clknet_2_0__leaf_hi_gclk2:6 h1\/ff150:CK 1e-06
24 clknet_2_0__leaf_hi_gclk2:6 clknet_2_0__leaf_hi_gclk2:3 0.0171552
25 clknet_2_0__leaf_hi_gclk2:6 h1\/ff150:CK 1e-06
26 clknet_2_0__leaf_hi_gclk2:3 h1\/ff202:CK 1e-06
27 clknet_2_0__leaf_hi_gclk2:7 clknet_2_0__leaf_hi_gclk2:8 0.00439602
28 clknet_2_0__leaf_hi_gclk2:7 h1\/ff170:CK 1e-06
29 clknet_2_0__leaf_hi_gclk2:7 h1\/ff170:CK 1e-06
30 clknet_2_0__leaf_hi_gclk2:8 h1\/ff206:CK 1e-06
31 clknet_2_0__leaf_hi_gclk2:8 h1\/ff206:CK 1e-06
32 clknet_2_0__leaf_hi_gclk2:8 clknet_2_0__leaf_hi_gclk2:5 0.0171552
33 clknet_2_0__leaf_hi_gclk2:8 h1\/ff206:CK 1e-06
34 clknet_2_0__leaf_hi_gclk2:5 h1\/ff187:CK 1e-06
35 clknet_2_0__leaf_hi_gclk2:9 clknet_2_0__leaf_hi_gclk2:2 8.935e-06
36 clknet_2_0__leaf_hi_gclk2:2 clkbuf_2_0__f_hi_gclk2:Z 1e-06
*END

*D_NET clknet_2_1__leaf_hi_gclk2 2.37524
*CONN
*I h1\/ff147:CK I *D DFF_X1
*I h1\/ff149:CK I *D DFF_X1
*I h1\/ff162:CK I *D DFF_X1
*I h1\/ff167:CK I *D DFF_X1
*I h1\/ff183:CK I *D DFF_X1
*I h1\/ff184:CK I *D DFF_X1
*I h1\/ff186:CK I *D DFF_X1
*I h1\/ff199:CK I *D DFF_X1
*I h1\/ff201:CK I *D DFF_X1
*I clkbuf_2_1__f_hi_gclk2:Z O *D CLKBUF_X3
*I clkload1:A I *D INV_X1
*CAP
1 clknet_2_1__leaf_hi_gclk2:0 0.226607
2 clknet_2_1__leaf_hi_gclk2:1 0.453215
3 clknet_2_1__leaf_hi_gclk2:2 0.226607
4 clknet_2_1__leaf_hi_gclk2:3 0.285608
5 clknet_2_1__leaf_hi_gclk2:4 0.232996
6 clknet_2_1__leaf_hi_gclk2:5 0.226607
7 clknet_2_1__leaf_hi_gclk2:6 0.0240512
8 clknet_2_1__leaf_hi_gclk2:7 0.0605977
9 clknet_2_1__leaf_hi_gclk2:8 9.395e-05
10 clknet_2_1__leaf_hi_gclk2:9 0.0590006
11 clknet_2_1__leaf_hi_gclk2:10 0.190061
12 clknet_2_1__leaf_hi_gclk2:11 0.238633
13 clknet_2_1__leaf_hi_gclk2:12 0.151166
*RES
1 clknet_2_1__leaf_hi_gclk2:0 clknet_2_1__leaf_hi_gclk2:1 0.0215512
2 clknet_2_1__leaf_hi_gclk2:0 h1\/ff183:CK 1e-06
3 clknet_2_1__leaf_hi_gclk2:0 h1\/ff183:CK 1e-06
4 clknet_2_1__leaf_hi_gclk2:1 h1\/ff167:CK 1e-06
5 clknet_2_1__leaf_hi_gclk2:1 h1\/ff167:CK 1e-06
6 clknet_2_1__leaf_hi_gclk2:1 clknet_2_1__leaf_hi_gclk2:3 0.0215512
7 clknet_2_1__leaf_hi_gclk2:1 h1\/ff167:CK 1e-06
8 clknet_2_1__leaf_hi_gclk2:3 h1\/ff162:CK 1e-06
9 clknet_2_1__leaf_hi_gclk2:3 h1\/ff162:CK 1e-06
10 clknet_2_1__leaf_hi_gclk2:2 clknet_2_1__leaf_hi_gclk2:5 0.01594
11 clknet_2_1__leaf_hi_gclk2:2 h1\/ff201:CK 1e-06
12 clknet_2_1__leaf_hi_gclk2:2 h1\/ff201:CK 1e-06
13 clknet_2_1__leaf_hi_gclk2:5 h1\/ff149:CK 1e-06
14 clknet_2_1__leaf_hi_gclk2:5 h1\/ff149:CK 1e-06
15 clknet_2_1__leaf_hi_gclk2:3 clknet_2_1__leaf_hi_gclk2:2 0.00561118
16 clknet_2_1__leaf_hi_gclk2:3 h1\/ff162:CK 1e-06
17 clknet_2_1__leaf_hi_gclk2:2 h1\/ff201:CK 1e-06
18 clknet_2_1__leaf_hi_gclk2:4 clknet_2_1__leaf_hi_gclk2:11 0.0165476
19 clknet_2_1__leaf_hi_gclk2:4 h1\/ff186:CK 1e-06
20 clknet_2_1__leaf_hi_gclk2:4 h1\/ff186:CK 1e-06
21 clknet_2_1__leaf_hi_gclk2:5 clknet_2_1__leaf_hi_gclk2:4 0.00561118
22 clknet_2_1__leaf_hi_gclk2:5 h1\/ff149:CK 1e-06
23 clknet_2_1__leaf_hi_gclk2:4 h1\/ff186:CK 1e-06
24 clknet_2_1__leaf_hi_gclk2:6 clknet_2_1__leaf_hi_gclk2:11 0.00228736
25 clknet_2_1__leaf_hi_gclk2:6 h1\/ff199:CK 1e-06
26 clknet_2_1__leaf_hi_gclk2:6 h1\/ff199:CK 1e-06
27 clknet_2_1__leaf_hi_gclk2:7 clknet_2_1__leaf_hi_gclk2:12 0.00190316
28 clknet_2_1__leaf_hi_gclk2:7 clkload1:A 1e-06
29 clknet_2_1__leaf_hi_gclk2:7 clkload1:A 1e-06
30 clknet_2_1__leaf_hi_gclk2:8 clknet_2_1__leaf_hi_gclk2:8 1e-06
31 clknet_2_1__leaf_hi_gclk2:8 clkbuf_2_1__f_hi_gclk2:Z 1e-06
32 clknet_2_1__leaf_hi_gclk2:8 clkbuf_2_1__f_hi_gclk2:Z 1e-06
33 clknet_2_1__leaf_hi_gclk2:8 clkbuf_2_1__f_hi_gclk2:Z 1e-06
34 clknet_2_1__leaf_hi_gclk2:9 clknet_2_1__leaf_hi_gclk2:10 0.00561118
35 clknet_2_1__leaf_hi_gclk2:9 h1\/ff184:CK 1e-06
36 clknet_2_1__leaf_hi_gclk2:9 h1\/ff184:CK 1e-06
37 clknet_2_1__leaf_hi_gclk2:10 h1\/ff147:CK 1e-06
38 clknet_2_1__leaf_hi_gclk2:10 h1\/ff147:CK 1e-06
39 clknet_2_1__leaf_hi_gclk2:10 clknet_2_1__leaf_hi_gclk2:12 0.0124643
40 clknet_2_1__leaf_hi_gclk2:10 h1\/ff147:CK 1e-06
41 clknet_2_1__leaf_hi_gclk2:11 clknet_2_1__leaf_hi_gclk2:7 0.00385992
42 clknet_2_1__leaf_hi_gclk2:7 clkload1:A 1e-06
43 clknet_2_1__leaf_hi_gclk2:12 clknet_2_1__leaf_hi_gclk2:8 8.935e-06
44 clknet_2_1__leaf_hi_gclk2:8 clkbuf_2_1__f_hi_gclk2:Z 1e-06
*END

*D_NET clknet_2_2__leaf_hi_gclk2 2.02331
*CONN
*I h1\/ff144:CK I *D DFF_X1
*I h1\/ff151:CK I *D DFF_X1
*I h1\/ff164:CK I *D DFF_X1
*I h1\/ff165:CK I *D DFF_X1
*I h1\/ff169:CK I *D DFF_X1
*I h1\/ff180:CK I *D DFF_X1
*I h1\/ff188:CK I *D DFF_X1
*I h1\/ff203:CK I *D DFF_X1
*I h1\/ff204:CK I *D DFF_X1
*I clkbuf_2_2__f_hi_gclk2:Z O *D CLKBUF_X3
*I clkload2:A I *D INV_X1
*CAP
1 clknet_2_2__leaf_hi_gclk2:0 0.0590006
2 clknet_2_2__leaf_hi_gclk2:1 0.285608
3 clknet_2_2__leaf_hi_gclk2:2 0.272831
4 clknet_2_2__leaf_hi_gclk2:3 0.226607
5 clknet_2_2__leaf_hi_gclk2:4 0.226607
6 clknet_2_2__leaf_hi_gclk2:5 0.226607
7 clknet_2_2__leaf_hi_gclk2:6 0.226607
8 clknet_2_2__leaf_hi_gclk2:7 0.127565
9 clknet_2_2__leaf_hi_gclk2:8 0.101447
10 clknet_2_2__leaf_hi_gclk2:9 0.145266
11 clknet_2_2__leaf_hi_gclk2:10 0.12516
*RES
1 clknet_2_2__leaf_hi_gclk2:0 clknet_2_2__leaf_hi_gclk2:1 0.00561118
2 clknet_2_2__leaf_hi_gclk2:0 h1\/ff204:CK 1e-06
3 clknet_2_2__leaf_hi_gclk2:0 h1\/ff204:CK 1e-06
4 clknet_2_2__leaf_hi_gclk2:1 h1\/ff165:CK 1e-06
5 clknet_2_2__leaf_hi_gclk2:1 h1\/ff165:CK 1e-06
6 clknet_2_2__leaf_hi_gclk2:1 clknet_2_2__leaf_hi_gclk2:2 0.0215512
7 clknet_2_2__leaf_hi_gclk2:1 h1\/ff165:CK 1e-06
8 clknet_2_2__leaf_hi_gclk2:2 h1\/ff180:CK 1e-06
9 clknet_2_2__leaf_hi_gclk2:2 h1\/ff180:CK 1e-06
10 clknet_2_2__leaf_hi_gclk2:2 clknet_2_2__leaf_hi_gclk2:3 0.00439602
11 clknet_2_2__leaf_hi_gclk2:2 h1\/ff180:CK 1e-06
12 clknet_2_2__leaf_hi_gclk2:3 h1\/ff144:CK 1e-06
13 clknet_2_2__leaf_hi_gclk2:3 h1\/ff144:CK 1e-06
14 clknet_2_2__leaf_hi_gclk2:3 clknet_2_2__leaf_hi_gclk2:4 0.0171552
15 clknet_2_2__leaf_hi_gclk2:3 h1\/ff144:CK 1e-06
16 clknet_2_2__leaf_hi_gclk2:4 h1\/ff188:CK 1e-06
17 clknet_2_2__leaf_hi_gclk2:4 h1\/ff188:CK 1e-06
18 clknet_2_2__leaf_hi_gclk2:4 clknet_2_2__leaf_hi_gclk2:5 0.00439602
19 clknet_2_2__leaf_hi_gclk2:4 h1\/ff188:CK 1e-06
20 clknet_2_2__leaf_hi_gclk2:5 h1\/ff151:CK 1e-06
21 clknet_2_2__leaf_hi_gclk2:5 h1\/ff151:CK 1e-06
22 clknet_2_2__leaf_hi_gclk2:5 clknet_2_2__leaf_hi_gclk2:6 0.0171552
23 clknet_2_2__leaf_hi_gclk2:5 h1\/ff151:CK 1e-06
24 clknet_2_2__leaf_hi_gclk2:6 h1\/ff203:CK 1e-06
25 clknet_2_2__leaf_hi_gclk2:6 h1\/ff203:CK 1e-06
26 clknet_2_2__leaf_hi_gclk2:6 clknet_2_2__leaf_hi_gclk2:7 0.00439602
27 clknet_2_2__leaf_hi_gclk2:6 h1\/ff203:CK 1e-06
28 clknet_2_2__leaf_hi_gclk2:7 h1\/ff164:CK 1e-06
29 clknet_2_2__leaf_hi_gclk2:7 h1\/ff164:CK 1e-06
30 clknet_2_2__leaf_hi_gclk2:7 clknet_2_2__leaf_hi_gclk2:8 0.00773592
31 clknet_2_2__leaf_hi_gclk2:7 h1\/ff164:CK 1e-06
32 clknet_2_2__leaf_hi_gclk2:8 clkload2:A 1e-06
33 clknet_2_2__leaf_hi_gclk2:8 clkload2:A 1e-06
34 clknet_2_2__leaf_hi_gclk2:8 clknet_2_2__leaf_hi_gclk2:9 0.00191209
35 clknet_2_2__leaf_hi_gclk2:8 clkload2:A 1e-06
36 clknet_2_2__leaf_hi_gclk2:9 clkbuf_2_2__f_hi_gclk2:Z 1e-06
37 clknet_2_2__leaf_hi_gclk2:9 clkbuf_2_2__f_hi_gclk2:Z 1e-06
38 clknet_2_2__leaf_hi_gclk2:9 clknet_2_2__leaf_hi_gclk2:9 1e-06
39 clknet_2_2__leaf_hi_gclk2:9 clkbuf_2_2__f_hi_gclk2:Z 1e-06
40 clknet_2_2__leaf_hi_gclk2:9 clkbuf_2_2__f_hi_gclk2:Z 1e-06
41 clknet_2_2__leaf_hi_gclk2:10 clknet_2_2__leaf_hi_gclk2:9 0.0119032
42 clknet_2_2__leaf_hi_gclk2:10 h1\/ff169:CK 1e-06
43 clknet_2_2__leaf_hi_gclk2:10 h1\/ff169:CK 1e-06
44 clknet_2_2__leaf_hi_gclk2:9 clkbuf_2_2__f_hi_gclk2:Z 1e-06
*END

*D_NET clknet_2_3__leaf_hi_gclk2 2.22455
*CONN
*I h1\/ff145:CK I *D DFF_X1
*I h1\/ff146:CK I *D DFF_X1
*I h1\/ff148:CK I *D DFF_X1
*I h1\/ff152:CK I *D DFF_X1
*I h1\/ff166:CK I *D DFF_X1
*I h1\/ff181:CK I *D DFF_X1
*I h1\/ff182:CK I *D DFF_X1
*I h1\/ff185:CK I *D DFF_X1
*I h1\/ff198:CK I *D DFF_X1
*I h1\/ff200:CK I *D DFF_X1
*I h1\/ff205:CK I *D DFF_X1
*I clkbuf_2_3__f_hi_gclk2:Z O *D CLKBUF_X3
*CAP
1 clknet_2_3__leaf_hi_gclk2:0 0.0590006
2 clknet_2_3__leaf_hi_gclk2:1 0.174334
3 clknet_2_3__leaf_hi_gclk2:2 0.180666
4 clknet_2_3__leaf_hi_gclk2:3 0.013059
5 clknet_2_3__leaf_hi_gclk2:4 0.120726
6 clknet_2_3__leaf_hi_gclk2:5 0.226607
7 clknet_2_3__leaf_hi_gclk2:6 0.226607
8 clknet_2_3__leaf_hi_gclk2:7 0.226607
9 clknet_2_3__leaf_hi_gclk2:8 0.226607
10 clknet_2_3__leaf_hi_gclk2:9 0.272831
11 clknet_2_3__leaf_hi_gclk2:10 0.285608
12 clknet_2_3__leaf_hi_gclk2:11 0.0590006
13 clknet_2_3__leaf_hi_gclk2:12 0.152894
*RES
1 clknet_2_3__leaf_hi_gclk2:0 clknet_2_3__leaf_hi_gclk2:1 0.00561118
2 clknet_2_3__leaf_hi_gclk2:0 h1\/ff185:CK 1e-06
3 clknet_2_3__leaf_hi_gclk2:0 h1\/ff185:CK 1e-06
4 clknet_2_3__leaf_hi_gclk2:1 h1\/ff148:CK 1e-06
5 clknet_2_3__leaf_hi_gclk2:1 h1\/ff148:CK 1e-06
6 clknet_2_3__leaf_hi_gclk2:1 clknet_2_3__leaf_hi_gclk2:2 0.0109686
7 clknet_2_3__leaf_hi_gclk2:1 h1\/ff148:CK 1e-06
8 clknet_2_3__leaf_hi_gclk2:2 clkbuf_2_3__f_hi_gclk2:Z 1e-06
9 clknet_2_3__leaf_hi_gclk2:2 clkbuf_2_3__f_hi_gclk2:Z 1e-06
10 clknet_2_3__leaf_hi_gclk2:2 clknet_2_3__leaf_hi_gclk2:2 1e-06
11 clknet_2_3__leaf_hi_gclk2:2 clkbuf_2_3__f_hi_gclk2:Z 1e-06
12 clknet_2_3__leaf_hi_gclk2:2 clkbuf_2_3__f_hi_gclk2:Z 1e-06
13 clknet_2_3__leaf_hi_gclk2:3 clknet_2_3__leaf_hi_gclk2:12 0.00124197
14 clknet_2_3__leaf_hi_gclk2:3 h1\/ff200:CK 1e-06
15 clknet_2_3__leaf_hi_gclk2:3 h1\/ff200:CK 1e-06
16 clknet_2_3__leaf_hi_gclk2:4 clknet_2_3__leaf_hi_gclk2:12 0.00708546
17 clknet_2_3__leaf_hi_gclk2:4 h1\/ff182:CK 1e-06
18 clknet_2_3__leaf_hi_gclk2:4 h1\/ff182:CK 1e-06
19 clknet_2_3__leaf_hi_gclk2:5 clknet_2_3__leaf_hi_gclk2:4 0.00439602
20 clknet_2_3__leaf_hi_gclk2:5 h1\/ff146:CK 1e-06
21 clknet_2_3__leaf_hi_gclk2:5 h1\/ff146:CK 1e-06
22 clknet_2_3__leaf_hi_gclk2:4 h1\/ff182:CK 1e-06
23 clknet_2_3__leaf_hi_gclk2:6 clknet_2_3__leaf_hi_gclk2:5 0.0171552
24 clknet_2_3__leaf_hi_gclk2:6 h1\/ff198:CK 1e-06
25 clknet_2_3__leaf_hi_gclk2:6 h1\/ff198:CK 1e-06
26 clknet_2_3__leaf_hi_gclk2:5 h1\/ff146:CK 1e-06
27 clknet_2_3__leaf_hi_gclk2:7 clknet_2_3__leaf_hi_gclk2:6 0.00439602
28 clknet_2_3__leaf_hi_gclk2:7 h1\/ff152:CK 1e-06
29 clknet_2_3__leaf_hi_gclk2:7 h1\/ff152:CK 1e-06
30 clknet_2_3__leaf_hi_gclk2:6 h1\/ff198:CK 1e-06
31 clknet_2_3__leaf_hi_gclk2:8 clknet_2_3__leaf_hi_gclk2:7 0.0171552
32 clknet_2_3__leaf_hi_gclk2:8 h1\/ff205:CK 1e-06
33 clknet_2_3__leaf_hi_gclk2:8 h1\/ff205:CK 1e-06
34 clknet_2_3__leaf_hi_gclk2:7 h1\/ff152:CK 1e-06
35 clknet_2_3__leaf_hi_gclk2:9 clknet_2_3__leaf_hi_gclk2:8 0.00439602
36 clknet_2_3__leaf_hi_gclk2:9 h1\/ff166:CK 1e-06
37 clknet_2_3__leaf_hi_gclk2:9 h1\/ff166:CK 1e-06
38 clknet_2_3__leaf_hi_gclk2:8 h1\/ff205:CK 1e-06
39 clknet_2_3__leaf_hi_gclk2:10 clknet_2_3__leaf_hi_gclk2:9 0.0215512
40 clknet_2_3__leaf_hi_gclk2:10 h1\/ff181:CK 1e-06
41 clknet_2_3__leaf_hi_gclk2:10 h1\/ff181:CK 1e-06
42 clknet_2_3__leaf_hi_gclk2:9 h1\/ff166:CK 1e-06
43 clknet_2_3__leaf_hi_gclk2:11 clknet_2_3__leaf_hi_gclk2:10 0.00561118
44 clknet_2_3__leaf_hi_gclk2:11 h1\/ff145:CK 1e-06
45 clknet_2_3__leaf_hi_gclk2:11 h1\/ff145:CK 1e-06
46 clknet_2_3__leaf_hi_gclk2:10 h1\/ff181:CK 1e-06
47 clknet_2_3__leaf_hi_gclk2:12 clknet_2_3__leaf_hi_gclk2:2 0.0062134
48 clknet_2_3__leaf_hi_gclk2:2 clkbuf_2_3__f_hi_gclk2:Z 1e-06
*END

*D_NET clknet_0_hi_gclk5 6.88844
*CONN
*I clkbuf_0_hi_gclk5:Z O *D CLKBUF_X3
*I clkbuf_4_0__f_hi_gclk5:A I *D CLKBUF_X3
*I clkbuf_4_1__f_hi_gclk5:A I *D CLKBUF_X3
*I clkbuf_4_2__f_hi_gclk5:A I *D CLKBUF_X3
*I clkbuf_4_3__f_hi_gclk5:A I *D CLKBUF_X3
*I clkbuf_4_4__f_hi_gclk5:A I *D CLKBUF_X3
*I clkbuf_4_5__f_hi_gclk5:A I *D CLKBUF_X3
*I clkbuf_4_6__f_hi_gclk5:A I *D CLKBUF_X3
*I clkbuf_4_7__f_hi_gclk5:A I *D CLKBUF_X3
*I clkbuf_4_8__f_hi_gclk5:A I *D CLKBUF_X3
*I clkbuf_4_9__f_hi_gclk5:A I *D CLKBUF_X3
*I clkbuf_4_10__f_hi_gclk5:A I *D CLKBUF_X3
*I clkbuf_4_11__f_hi_gclk5:A I *D CLKBUF_X3
*I clkbuf_4_12__f_hi_gclk5:A I *D CLKBUF_X3
*I clkbuf_4_13__f_hi_gclk5:A I *D CLKBUF_X3
*I clkbuf_4_14__f_hi_gclk5:A I *D CLKBUF_X3
*I clkbuf_4_15__f_hi_gclk5:A I *D CLKBUF_X3
*CAP
1 clknet_0_hi_gclk5:0 0.0718306
2 clknet_0_hi_gclk5:1 0.0718306
3 clknet_0_hi_gclk5:2 0.32883
4 clknet_0_hi_gclk5:3 0.466178
5 clknet_0_hi_gclk5:4 0.100694
6 clknet_0_hi_gclk5:5 0.281958
7 clknet_0_hi_gclk5:6 0.0439157
8 clknet_0_hi_gclk5:7 0.0270756
9 clknet_0_hi_gclk5:8 0.101497
10 clknet_0_hi_gclk5:9 0.12673
11 clknet_0_hi_gclk5:10 0.432115
12 clknet_0_hi_gclk5:11 0.368093
13 clknet_0_hi_gclk5:12 0.289366
14 clknet_0_hi_gclk5:13 0.450031
15 clknet_0_hi_gclk5:14 0.0659009
16 clknet_0_hi_gclk5:15 0.0536221
17 clknet_0_hi_gclk5:16 0.0536221
18 clknet_0_hi_gclk5:17 0.55452
19 clknet_0_hi_gclk5:18 0.539724
20 clknet_0_hi_gclk5:19 0.238298
21 clknet_0_hi_gclk5:20 0.481996
22 clknet_0_hi_gclk5:21 0.523139
23 clknet_0_hi_gclk5:22 0.498581
24 clknet_0_hi_gclk5:23 0.200038
25 clknet_0_hi_gclk5:24 0.518851
*RES
1 clknet_0_hi_gclk5:0 clknet_0_hi_gclk5:20 0.00295669
2 clknet_0_hi_gclk5:0 clkbuf_4_5__f_hi_gclk5:A 1e-06
3 clknet_0_hi_gclk5:0 clkbuf_4_5__f_hi_gclk5:A 1e-06
4 clknet_0_hi_gclk5:0 clkbuf_4_5__f_hi_gclk5:A 1e-06
5 clknet_0_hi_gclk5:0 clkbuf_4_5__f_hi_gclk5:A 1e-06
6 clknet_0_hi_gclk5:0 clkbuf_4_5__f_hi_gclk5:A 1e-06
7 clknet_0_hi_gclk5:1 clknet_0_hi_gclk5:20 0.00295669
8 clknet_0_hi_gclk5:1 clkbuf_4_7__f_hi_gclk5:A 1e-06
9 clknet_0_hi_gclk5:1 clkbuf_4_7__f_hi_gclk5:A 1e-06
10 clknet_0_hi_gclk5:1 clkbuf_4_7__f_hi_gclk5:A 1e-06
11 clknet_0_hi_gclk5:1 clkbuf_4_7__f_hi_gclk5:A 1e-06
12 clknet_0_hi_gclk5:1 clkbuf_4_7__f_hi_gclk5:A 1e-06
13 clknet_0_hi_gclk5:2 clknet_0_hi_gclk5:3 0.0093905
14 clknet_0_hi_gclk5:2 clkbuf_4_4__f_hi_gclk5:A 1e-06
15 clknet_0_hi_gclk5:2 clkbuf_4_4__f_hi_gclk5:A 1e-06
16 clknet_0_hi_gclk5:2 clkbuf_4_4__f_hi_gclk5:A 1e-06
17 clknet_0_hi_gclk5:2 clkbuf_4_4__f_hi_gclk5:A 1e-06
18 clknet_0_hi_gclk5:2 clkbuf_4_4__f_hi_gclk5:A 1e-06
19 clknet_0_hi_gclk5:3 clkbuf_4_0__f_hi_gclk5:A 1e-06
20 clknet_0_hi_gclk5:3 clkbuf_4_0__f_hi_gclk5:A 1e-06
21 clknet_0_hi_gclk5:3 clkbuf_4_0__f_hi_gclk5:A 1e-06
22 clknet_0_hi_gclk5:3 clkbuf_4_0__f_hi_gclk5:A 1e-06
23 clknet_0_hi_gclk5:3 clkbuf_4_0__f_hi_gclk5:A 1e-06
24 clknet_0_hi_gclk5:3 clknet_0_hi_gclk5:5 0.0097983
25 clknet_0_hi_gclk5:3 clkbuf_4_0__f_hi_gclk5:A 1e-06
26 clknet_0_hi_gclk5:5 clkbuf_4_3__f_hi_gclk5:A 1e-06
27 clknet_0_hi_gclk5:5 clkbuf_4_3__f_hi_gclk5:A 1e-06
28 clknet_0_hi_gclk5:5 clkbuf_4_3__f_hi_gclk5:A 1e-06
29 clknet_0_hi_gclk5:5 clkbuf_4_3__f_hi_gclk5:A 1e-06
30 clknet_0_hi_gclk5:5 clkbuf_4_3__f_hi_gclk5:A 1e-06
31 clknet_0_hi_gclk5:4 clknet_0_hi_gclk5:18 0.00414477
32 clknet_0_hi_gclk5:4 clkbuf_4_6__f_hi_gclk5:A 1e-06
33 clknet_0_hi_gclk5:4 clkbuf_4_6__f_hi_gclk5:A 1e-06
34 clknet_0_hi_gclk5:4 clkbuf_4_6__f_hi_gclk5:A 1e-06
35 clknet_0_hi_gclk5:4 clkbuf_4_6__f_hi_gclk5:A 1e-06
36 clknet_0_hi_gclk5:4 clkbuf_4_6__f_hi_gclk5:A 1e-06
37 clknet_0_hi_gclk5:5 clknet_0_hi_gclk5:23 0.00180766
38 clknet_0_hi_gclk5:5 clkbuf_4_3__f_hi_gclk5:A 1e-06
39 clknet_0_hi_gclk5:6 clknet_0_hi_gclk5:23 0.00180766
40 clknet_0_hi_gclk5:6 clkbuf_4_2__f_hi_gclk5:A 1e-06
41 clknet_0_hi_gclk5:6 clkbuf_4_2__f_hi_gclk5:A 1e-06
42 clknet_0_hi_gclk5:6 clkbuf_4_2__f_hi_gclk5:A 1e-06
43 clknet_0_hi_gclk5:6 clkbuf_4_2__f_hi_gclk5:A 1e-06
44 clknet_0_hi_gclk5:6 clkbuf_4_2__f_hi_gclk5:A 1e-06
45 clknet_0_hi_gclk5:7 clknet_0_hi_gclk5:24 0.00111448
46 clknet_0_hi_gclk5:7 clkbuf_4_1__f_hi_gclk5:A 1e-06
47 clknet_0_hi_gclk5:7 clkbuf_4_1__f_hi_gclk5:A 1e-06
48 clknet_0_hi_gclk5:7 clkbuf_4_1__f_hi_gclk5:A 1e-06
49 clknet_0_hi_gclk5:7 clkbuf_4_1__f_hi_gclk5:A 1e-06
50 clknet_0_hi_gclk5:7 clkbuf_4_1__f_hi_gclk5:A 1e-06
51 clknet_0_hi_gclk5:8 clknet_0_hi_gclk5:9 0.000785546
52 clknet_0_hi_gclk5:8 clkbuf_4_11__f_hi_gclk5:A 1e-06
53 clknet_0_hi_gclk5:8 clkbuf_4_11__f_hi_gclk5:A 1e-06
54 clknet_0_hi_gclk5:8 clkbuf_4_11__f_hi_gclk5:A 1e-06
55 clknet_0_hi_gclk5:8 clkbuf_4_11__f_hi_gclk5:A 1e-06
56 clknet_0_hi_gclk5:8 clkbuf_4_11__f_hi_gclk5:A 1e-06
57 clknet_0_hi_gclk5:9 clkbuf_0_hi_gclk5:Z 1e-06
58 clknet_0_hi_gclk5:9 clkbuf_0_hi_gclk5:Z 1e-06
59 clknet_0_hi_gclk5:9 clkbuf_0_hi_gclk5:Z 1e-06
60 clknet_0_hi_gclk5:9 clkbuf_0_hi_gclk5:Z 1e-06
61 clknet_0_hi_gclk5:9 clkbuf_0_hi_gclk5:Z 1e-06
62 clknet_0_hi_gclk5:9 clknet_0_hi_gclk5:9 1e-06
63 clknet_0_hi_gclk5:9 clkbuf_0_hi_gclk5:Z 1e-06
64 clknet_0_hi_gclk5:9 clkbuf_0_hi_gclk5:Z 1e-06
65 clknet_0_hi_gclk5:10 clknet_0_hi_gclk5:17 0.0177867
66 clknet_0_hi_gclk5:10 clkbuf_4_8__f_hi_gclk5:A 1e-06
67 clknet_0_hi_gclk5:10 clkbuf_4_8__f_hi_gclk5:A 1e-06
68 clknet_0_hi_gclk5:10 clkbuf_4_8__f_hi_gclk5:A 1e-06
69 clknet_0_hi_gclk5:10 clkbuf_4_8__f_hi_gclk5:A 1e-06
70 clknet_0_hi_gclk5:10 clkbuf_4_8__f_hi_gclk5:A 1e-06
71 clknet_0_hi_gclk5:11 clknet_0_hi_gclk5:17 0.00324057
72 clknet_0_hi_gclk5:11 clkbuf_4_9__f_hi_gclk5:A 1e-06
73 clknet_0_hi_gclk5:11 clkbuf_4_9__f_hi_gclk5:A 1e-06
74 clknet_0_hi_gclk5:11 clkbuf_4_9__f_hi_gclk5:A 1e-06
75 clknet_0_hi_gclk5:11 clkbuf_4_9__f_hi_gclk5:A 1e-06
76 clknet_0_hi_gclk5:11 clkbuf_4_9__f_hi_gclk5:A 1e-06
77 clknet_0_hi_gclk5:12 clknet_0_hi_gclk5:11 0.0119109
78 clknet_0_hi_gclk5:12 clkbuf_4_10__f_hi_gclk5:A 1e-06
79 clknet_0_hi_gclk5:12 clkbuf_4_10__f_hi_gclk5:A 1e-06
80 clknet_0_hi_gclk5:12 clkbuf_4_10__f_hi_gclk5:A 1e-06
81 clknet_0_hi_gclk5:12 clkbuf_4_10__f_hi_gclk5:A 1e-06
82 clknet_0_hi_gclk5:12 clkbuf_4_10__f_hi_gclk5:A 1e-06