*SPEF "ieee 1481-1999"
*DESIGN "multi_sink"
*DATE "11:11:11 Fri 11 11, 1111"
*VENDOR "The OpenROAD Project"
*PROGRAM "OpenROAD"
*VERSION "1.0"
*DESIGN_FLOW "NAME_SCOPE LOCAL" "PIN_CAP NONE"
*DIVIDER /
*DELIMITER :
*BUS_DELIMITER []
*T_UNIT 1 NS
*C_UNIT 1 FF
*R_UNIT 1 KOHM
*L_UNIT 1 HENRY

*PORTS
clk I

*D_NET clk 1.82815
*CONN
*P clk I
*I clkbuf_0_clk:A I *D CLKBUF_X3
*CAP
1 clk:0 0.914074
2 clk:1 0.914074
*RES
1 clk:0 clk:0 1e-06
2 clk clk:2 1e-06
3 clk:2 clk:3 1e-06
4 clk:3 clk:4 1e-06
5 clk:4 clk:0 1e-06
6 clk:1 clk:0 0.0376251
7 clkbuf_0_clk:A clk:6 1e-06
8 clk:6 clk:7 1e-06
9 clk:7 clk:8 1e-06
10 clk:8 clk:9 1e-06
11 clk:9 clk:1 1e-06
*END

*D_NET gclk1 0.174422
*CONN
*I gclk1:GCK O *D CLKGATE_X1
*I clkbuf_0_gclk1:A I *D CLKBUF_X3
*CAP
1 gclk1:0 0.0872111
2 gclk1:1 0.0872111
*RES
1 gclk1:0 gclk1:1 0.00358978
2 clkbuf_0_gclk1:A gclk1:2 1e-06
3 gclk1:2 gclk1:3 1e-06
4 gclk1:3 gclk1:4 1e-06
5 gclk1:4 gclk1:5 1e-06
6 gclk1:5 gclk1:0 1e-06
7 gclk1:GCK gclk1:7 1e-06
8 gclk1:7 gclk1:8 1e-06
9 gclk1:8 gclk1:9 1e-06
10 gclk1:9 gclk1:10 1e-06
11 gclk1:10 gclk1:1 1e-06
12 gclk1:1 gclk1:1 1e-06
*END

*D_NET gclk3 0.174422
*CONN
*I gclk3:GCK O *D CLKGATE_X1
*I clkbuf_0_gclk3:A I *D CLKBUF_X3
*CAP
1 gclk3:0 0.0872111
2 gclk3:1 0.0872111
*RES
1 gclk3:0 gclk3:1 0.00358978
2 clkbuf_0_gclk3:A gclk3:2 1e-06
3 gclk3:2 gclk3:3 1e-06
4 gclk3:3 gclk3:4 1e-06
5 gclk3:4 gclk3:5 1e-06
6 gclk3:5 gclk3:0 1e-06
7 gclk3:GCK gclk3:7 1e-06
8 gclk3:7 gclk3:8 1e-06
9 gclk3:8 gclk3:9 1e-06
10 gclk3:9 gclk3:10 1e-06
11 gclk3:10 gclk3:1 1e-06
12 gclk3:1 gclk3:1 1e-06
*END

*D_NET gclk4 0.320455
*CONN
*I gclk4:GCK O *D CLKGATE_X1
*I clkbuf_0_gclk4:A I *D CLKBUF_X3
*I delaybuf_0_core:A I *D CLKBUF_X3
*CAP
1 gclk4:0 0.0382598
2 gclk4:1 0.0186281
3 gclk4:2 0.10334
4 gclk4:3 0.160228
*RES
1 gclk4:0 gclk4:3 0.00157485
2 delaybuf_0_core:A gclk4:4 1e-06
3 gclk4:4 gclk4:5 1e-06
4 gclk4:5 gclk4:6 1e-06
5 gclk4:6 gclk4:7 1e-06
6 gclk4:7 gclk4:0 1e-06
7 gclk4:1 gclk4:1 1e-06
8 gclk4:GCK gclk4:9 1e-06
9 gclk4:9 gclk4:10 1e-06
10 gclk4:10 gclk4:11 1e-06
11 gclk4:11 gclk4:12 1e-06
12 gclk4:12 gclk4:1 1e-06
13 gclk4:2 gclk4:3 0.00425366
14 clkbuf_0_gclk4:A gclk4:14 1e-06
15 gclk4:14 gclk4:15 1e-06
16 gclk4:15 gclk4:16 1e-06
17 gclk4:16 gclk4:17 1e-06
18 gclk4:17 gclk4:2 1e-06
19 gclk4:3 gclk4:1 0.000766771
*END

*D_NET h1/gclk2 0.174422
*CONN
*I h1/gclk2:GCK O *D CLKGATE_X1
*I h1/clkbuf_0_h1\/gclk2:A I *D CLKBUF_X3
*CAP
1 h1/gclk2:0 0.0872111
2 h1/gclk2:1 0.0872111
*RES
1 h1/gclk2:0 h1/gclk2:1 0.00358978
2 h1/clkbuf_0_h1\/gclk2:A h1/gclk2:2 1e-06
3 h1/gclk2:2 h1/gclk2:3 1e-06
4 h1/gclk2:3 h1/gclk2:4 1e-06
5 h1/gclk2:4 h1/gclk2:5 1e-06
6 h1/gclk2:5 h1/gclk2:0 1e-06
7 h1/gclk2:GCK h1/gclk2:7 1e-06
8 h1/gclk2:7 h1/gclk2:8 1e-06
9 h1/gclk2:8 h1/gclk2:9 1e-06
10 h1/gclk2:9 h1/gclk2:10 1e-06
11 h1/gclk2:10 h1/gclk2:1 1e-06
12 h1/gclk2:1 h1/gclk2:1 1e-06
*END

*D_NET h1/gclk5 0.278054
*CONN
*I h1/gclk5:GCK O *D CLKGATE_X1
*I h1/clkbuf_0_h1\/gclk5:A I *D CLKBUF_X3
*CAP
1 h1/gclk5:0 0.139027
2 h1/gclk5:1 0.139027
*RES
1 h1/gclk5:0 h1/gclk5:1 0.00572262
2 h1/clkbuf_0_h1\/gclk5:A h1/gclk5:2 1e-06
3 h1/gclk5:2 h1/gclk5:3 1e-06
4 h1/gclk5:3 h1/gclk5:4 1e-06
5 h1/gclk5:4 h1/gclk5:5 1e-06
6 h1/gclk5:5 h1/gclk5:0 1e-06
7 h1/gclk5:GCK h1/gclk5:7 1e-06
8 h1/gclk5:7 h1/gclk5:8 1e-06
9 h1/gclk5:8 h1/gclk5:9 1e-06
10 h1/gclk5:9 h1/gclk5:10 1e-06
11 h1/gclk5:10 h1/gclk5:1 1e-06
12 h1/gclk5:1 h1/gclk5:1 1e-06
*END

*D_NET gclk4_regs 0.038132
*CONN
*I clkbuf_regs_0_core:Z O *D CLKBUF_X3
*I clkbuf_0_gclk4_regs:A I *D CLKBUF_X3
*CAP
1 gclk4_regs:0 0.019066
2 gclk4_regs:1 0.019066
*RES
1 gclk4_regs:0 gclk4_regs:1 0.000784795
2 clkbuf_0_gclk4_regs:A gclk4_regs:2 1e-06
3 gclk4_regs:2 gclk4_regs:3 1e-06
4 gclk4_regs:3 gclk4_regs:4 1e-06
5 gclk4_regs:4 gclk4_regs:5 1e-06
6 gclk4_regs:5 gclk4_regs:0 1e-06
7 clkbuf_regs_0_core:Z gclk4_regs:7 1e-06
8 gclk4_regs:7 gclk4_regs:8 1e-06
9 gclk4_regs:8 gclk4_regs:9 1e-06
10 gclk4_regs:9 gclk4_regs:10 1e-06
11 gclk4_regs:10 gclk4_regs:1 1e-06
12 gclk4_regs:1 gclk4_regs:1 1e-06
*END

*D_NET clknet_0_clk 0.721188
*CONN
*I clkbuf_0_clk:Z O *D CLKBUF_X3
*I clkbuf_1_0__f_clk:A I *D CLKBUF_X3
*I delaybuf_4_core:A I *D CLKBUF_X3
*CAP
1 clknet_0_clk:0 0.260064
2 clknet_0_clk:1 0.0860981
3 clknet_0_clk:2 0.0144318
4 clknet_0_clk:3 0.360594
*RES
1 clknet_0_clk:0 clknet_0_clk:3 0.0107048
2 clkbuf_1_0__f_clk:A clknet_0_clk:4 1e-06
3 clknet_0_clk:4 clknet_0_clk:5 1e-06
4 clknet_0_clk:5 clknet_0_clk:6 1e-06
5 clknet_0_clk:6 clknet_0_clk:7 1e-06
6 clknet_0_clk:7 clknet_0_clk:0 1e-06
7 clknet_0_clk:1 clknet_0_clk:3 0.00354397
8 delaybuf_4_core:A clknet_0_clk:9 1e-06
9 clknet_0_clk:9 clknet_0_clk:10 1e-06
10 clknet_0_clk:10 clknet_0_clk:11 1e-06
11 clknet_0_clk:11 clknet_0_clk:12 1e-06
12 clknet_0_clk:12 clknet_0_clk:1 1e-06
13 clknet_0_clk:2 clknet_0_clk:2 1e-06
14 clkbuf_0_clk:Z clknet_0_clk:14 1e-06
15 clknet_0_clk:14 clknet_0_clk:15 1e-06
16 clknet_0_clk:15 clknet_0_clk:16 1e-06
17 clknet_0_clk:16 clknet_0_clk:17 1e-06
18 clknet_0_clk:17 clknet_0_clk:2 1e-06
19 clknet_0_clk:3 clknet_0_clk:2 0.000594041
*END

*D_NET clknet_1_0__leaf_clk_1 0.412702
*CONN
*I gclk4:CK I *D CLKGATE_X1
*I clkbuf_1_0__f_clk:Z O *D CLKBUF_X3
*I h1/delaybuf_2_core:A I *D CLKBUF_X3
*CAP
1 clknet_1_0__leaf_clk_1:0 0.0085934
2 clknet_1_0__leaf_clk_1:1 0.0792198
3 clknet_1_0__leaf_clk_1:2 0.118538
4 clknet_1_0__leaf_clk_1:3 0.206351
*RES
1 clknet_1_0__leaf_clk_1:0 clknet_1_0__leaf_clk_1:3 0.000353721
2 h1/delaybuf_2_core:A clknet_1_0__leaf_clk_1:4 1e-06
3 clknet_1_0__leaf_clk_1:4 clknet_1_0__leaf_clk_1:5 1e-06
4 clknet_1_0__leaf_clk_1:5 clknet_1_0__leaf_clk_1:6 1e-06
5 clknet_1_0__leaf_clk_1:6 clknet_1_0__leaf_clk_1:7 1e-06
6 clknet_1_0__leaf_clk_1:7 clknet_1_0__leaf_clk_1:0 1e-06
7 clknet_1_0__leaf_clk_1:1 clknet_1_0__leaf_clk_1:3 0.00326084
8 gclk4:CK clknet_1_0__leaf_clk_1:9 1e-06
9 clknet_1_0__leaf_clk_1:9 clknet_1_0__leaf_clk_1:10 1e-06
10 clknet_1_0__leaf_clk_1:10 clknet_1_0__leaf_clk_1:11 1e-06
11 clknet_1_0__leaf_clk_1:11 clknet_1_0__leaf_clk_1:12 1e-06
12 clknet_1_0__leaf_clk_1:12 clknet_1_0__leaf_clk_1:1 1e-06
13 clknet_1_0__leaf_clk_1:2 clknet_1_0__leaf_clk_1:2 1e-06
14 clkbuf_1_0__f_clk:Z clknet_1_0__leaf_clk_1:14 1e-06
15 clknet_1_0__leaf_clk_1:14 clknet_1_0__leaf_clk_1:15 1e-06
16 clknet_1_0__leaf_clk_1:15 clknet_1_0__leaf_clk_1:16 1e-06
17 clknet_1_0__leaf_clk_1:16 clknet_1_0__leaf_clk_1:17 1e-06
18 clknet_1_0__leaf_clk_1:17 clknet_1_0__leaf_clk_1:2 1e-06
19 clknet_1_0__leaf_clk_1:3 clknet_1_0__leaf_clk_1:2 0.00487925
*END

*D_NET clknet_1_1__leaf_clk_2 0.571798
*CONN
*I gclk1:CK I *D CLKGATE_X1
*I h1/gclk2:CK I *D CLKGATE_X1
*I clkbuf_1_1__f_clk:Z O *D CLKBUF_X3
*CAP
1 clknet_1_1__leaf_clk_2:0 0.041781
2 clknet_1_1__leaf_clk_2:1 0.219122
3 clknet_1_1__leaf_clk_2:2 0.0249956
4 clknet_1_1__leaf_clk_2:3 0.285899
*RES
1 clknet_1_1__leaf_clk_2:0 clknet_1_1__leaf_clk_2:3 0.00171979
2 gclk1:CK clknet_1_1__leaf_clk_2:4 1e-06
3 clknet_1_1__leaf_clk_2:4 clknet_1_1__leaf_clk_2:5 1e-06
4 clknet_1_1__leaf_clk_2:5 clknet_1_1__leaf_clk_2:6 1e-06
5 clknet_1_1__leaf_clk_2:6 clknet_1_1__leaf_clk_2:7 1e-06
6 clknet_1_1__leaf_clk_2:7 clknet_1_1__leaf_clk_2:0 1e-06
7 clknet_1_1__leaf_clk_2:1 clknet_1_1__leaf_clk_2:1 1e-06
8 clkbuf_1_1__f_clk:Z clknet_1_1__leaf_clk_2:9 1e-06
9 clknet_1_1__leaf_clk_2:9 clknet_1_1__leaf_clk_2:10 1e-06
10 clknet_1_1__leaf_clk_2:10 clknet_1_1__leaf_clk_2:11 1e-06
11 clknet_1_1__leaf_clk_2:11 clknet_1_1__leaf_clk_2:12 1e-06
12 clknet_1_1__leaf_clk_2:12 clknet_1_1__leaf_clk_2:1 1e-06
13 clknet_1_1__leaf_clk_2:2 clknet_1_1__leaf_clk_2:3 0.00102887
14 h1/gclk2:CK clknet_1_1__leaf_clk_2:14 1e-06
15 clknet_1_1__leaf_clk_2:14 clknet_1_1__leaf_clk_2:15 1e-06
16 clknet_1_1__leaf_clk_2:15 clknet_1_1__leaf_clk_2:16 1e-06
17 clknet_1_1__leaf_clk_2:16 clknet_1_1__leaf_clk_2:17 1e-06
18 clknet_1_1__leaf_clk_2:17 clknet_1_1__leaf_clk_2:2 1e-06
19 clknet_1_1__leaf_clk_2:3 clknet_1_1__leaf_clk_2:1 0.00901951
*END

*D_NET clknet_0_h1\/gclk5 9.46751
*CONN
*I h1/clkbuf_0_h1\/gclk5:Z O *D CLKBUF_X3
*I h1/clkbuf_4_0__f_h1\/gclk5:A I *D CLKBUF_X3
*I h1/clkbuf_4_1__f_h1\/gclk5:A I *D CLKBUF_X3
*I h1/clkbuf_4_2__f_h1\/gclk5:A I *D CLKBUF_X3
*I h1/clkbuf_4_3__f_h1\/gclk5:A I *D CLKBUF_X3
*I h1/clkbuf_4_4__f_h1\/gclk5:A I *D CLKBUF_X3
*I h1/clkbuf_4_5__f_h1\/gclk5:A I *D CLKBUF_X3
*I h1/clkbuf_4_6__f_h1\/gclk5:A I *D CLKBUF_X3
*I h1/clkbuf_4_7__f_h1\/gclk5:A I *D CLKBUF_X3
*I h1/clkbuf_4_8__f_h1\/gclk5:A I *D CLKBUF_X3
*I h1/clkbuf_4_9__f_h1\/gclk5:A I *D CLKBUF_X3
*I h1/clkbuf_4_10__f_h1\/gclk5:A I *D CLKBUF_X3
*I h1/clkbuf_4_11__f_h1\/gclk5:A I *D CLKBUF_X3
*I h1/clkbuf_4_12__f_h1\/gclk5:A I *D CLKBUF_X3
*I h1/clkbuf_4_13__f_h1\/gclk5:A I *D CLKBUF_X3
*I h1/clkbuf_4_14__f_h1\/gclk5:A I *D CLKBUF_X3
*I h1/clkbuf_4_15__f_h1\/gclk5:A I *D CLKBUF_X3
*CAP
1 clknet_0_h1\/gclk5:0 0.458278
2 clknet_0_h1\/gclk5:1 0.329486
3 clknet_0_h1\/gclk5:2 0.406426
4 clknet_0_h1\/gclk5:3 0.811264
5 clknet_0_h1\/gclk5:4 0.416588
6 clknet_0_h1\/gclk5:5 0.199254
7 clknet_0_h1\/gclk5:6 0.263622
8 clknet_0_h1\/gclk5:7 0.20896
9 clknet_0_h1\/gclk5:8 0.159151
10 clknet_0_h1\/gclk5:9 0.162873
11 clknet_0_h1\/gclk5:10 0.103759
12 clknet_0_h1\/gclk5:11 0.284184
13 clknet_0_h1\/gclk5:12 0.173163
14 clknet_0_h1\/gclk5:13 0.405112
15 clknet_0_h1\/gclk5:14 0.231182
16 clknet_0_h1\/gclk5:15 0.391519
17 clknet_0_h1\/gclk5:16 0.357894
18 clknet_0_h1\/gclk5:17 0.708034
19 clknet_0_h1\/gclk5:18 0.487616
20 clknet_0_h1\/gclk5:19 0.61794
21 clknet_0_h1\/gclk5:20 0.614784
22 clknet_0_h1\/gclk5:21 0.557786
23 clknet_0_h1\/gclk5:22 0.600005
24 clknet_0_h1\/gclk5:23 0.518632
*RES
1 clknet_0_h1\/gclk5:0 clknet_0_h1\/gclk5:22 0.0188636
2 h1/clkbuf_4_8__f_h1\/gclk5:A clknet_0_h1\/gclk5:24 1e-06
3 clknet_0_h1\/gclk5:24 clknet_0_h1\/gclk5:25 1e-06
4 clknet_0_h1\/gclk5:25 clknet_0_h1\/gclk5:26 1e-06
5 clknet_0_h1\/gclk5:26 clknet_0_h1\/gclk5:27 1e-06
6 clknet_0_h1\/gclk5:27 clknet_0_h1\/gclk5:0 1e-06
7 clknet_0_h1\/gclk5:1 clknet_0_h1\/gclk5:4 0.0135623
8 h1/clkbuf_4_10__f_h1\/gclk5:A clknet_0_h1\/gclk5:29 1e-06
9 clknet_0_h1\/gclk5:29 clknet_0_h1\/gclk5:30 1e-06
10 clknet_0_h1\/gclk5:30 clknet_0_h1\/gclk5:31 1e-06
11 clknet_0_h1\/gclk5:31 clknet_0_h1\/gclk5:32 1e-06
12 clknet_0_h1\/gclk5:32 clknet_0_h1\/gclk5:1 1e-06
13 h1/clkbuf_4_11__f_h1\/gclk5:A clknet_0_h1\/gclk5:34 1e-06
14 clknet_0_h1\/gclk5:34 clknet_0_h1\/gclk5:35 1e-06
15 clknet_0_h1\/gclk5:35 clknet_0_h1\/gclk5:36 1e-06
16 clknet_0_h1\/gclk5:36 clknet_0_h1\/gclk5:37 1e-06
17 clknet_0_h1\/gclk5:37 clknet_0_h1\/gclk5:4 1e-06
18 clknet_0_h1\/gclk5:2 clknet_0_h1\/gclk5:3 0.0167293
19 h1/clkbuf_4_0__f_h1\/gclk5:A clknet_0_h1\/gclk5:39 1e-06
20 clknet_0_h1\/gclk5:39 clknet_0_h1\/gclk5:40 1e-06
21 clknet_0_h1\/gclk5:40 clknet_0_h1\/gclk5:41 1e-06
22 clknet_0_h1\/gclk5:41 clknet_0_h1\/gclk5:42 1e-06
23 clknet_0_h1\/gclk5:42 clknet_0_h1\/gclk5:2 1e-06
24 h1/clkbuf_4_2__f_h1\/gclk5:A clknet_0_h1\/gclk5:44 1e-06
25 clknet_0_h1\/gclk5:44 clknet_0_h1\/gclk5:45 1e-06
26 clknet_0_h1\/gclk5:45 clknet_0_h1\/gclk5:46 1e-06
27 clknet_0_h1\/gclk5:46 clknet_0_h1\/gclk5:47 1e-06
28 clknet_0_h1\/gclk5:47 clknet_0_h1\/gclk5:3 1e-06
29 clknet_0_h1\/gclk5:3 clknet_0_h1\/gclk5:21 0.0166639
30 clknet_0_h1\/gclk5:4 clknet_0_h1\/gclk5:23 0.00358527
31 clknet_0_h1\/gclk5:5 clknet_0_h1\/gclk5:22 0.00216513
32 h1/clkbuf_4_9__f_h1\/gclk5:A clknet_0_h1\/gclk5:49 1e-06
33 clknet_0_h1\/gclk5:49 clknet_0_h1\/gclk5:50 1e-06
34 clknet_0_h1\/gclk5:50 clknet_0_h1\/gclk5:51 1e-06
35 clknet_0_h1\/gclk5:51 clknet_0_h1\/gclk5:52 1e-06
36 clknet_0_h1\/gclk5:52 clknet_0_h1\/gclk5:5 1e-06
37 clknet_0_h1\/gclk5:6 clknet_0_h1\/gclk5:18 0.00976375
38 h1/clkbuf_4_14__f_h1\/gclk5:A clknet_0_h1\/gclk5:54 1e-06
39 clknet_0_h1\/gclk5:54 clknet_0_h1\/gclk5:55 1e-06
40 clknet_0_h1\/gclk5:55 clknet_0_h1\/gclk5:56 1e-06
41 clknet_0_h1\/gclk5:56 clknet_0_h1\/gclk5:57 1e-06
42 clknet_0_h1\/gclk5:57 clknet_0_h1\/gclk5:6 1e-06
43 clknet_0_h1\/gclk5:7 clknet_0_h1\/gclk5:7 1e-06
44 h1/clkbuf_0_h1\/gclk5:Z clknet_0_h1\/gclk5:59 1e-06
45 clknet_0_h1\/gclk5:59 clknet_0_h1\/gclk5:60 1e-06
46 clknet_0_h1\/gclk5:60 clknet_0_h1\/gclk5:61 1e-06
47 clknet_0_h1\/gclk5:61 clknet_0_h1\/gclk5:62 1e-06
48 clknet_0_h1\/gclk5:62 clknet_0_h1\/gclk5:7 1e-06
49 clknet_0_h1\/gclk5:8 clknet_0_h1\/gclk5:7 0.00294993
50 h1/clkbuf_4_3__f_h1\/gclk5:A clknet_0_h1\/gclk5:64 1e-06
51 clknet_0_h1\/gclk5:64 clknet_0_h1\/gclk5:65 1e-06
52 clknet_0_h1\/gclk5:65 clknet_0_h1\/gclk5:66 1e-06
53 clknet_0_h1\/gclk5:66 clknet_0_h1\/gclk5:67 1e-06
54 clknet_0_h1\/gclk5:67 clknet_0_h1\/gclk5:8 1e-06
55 clknet_0_h1\/gclk5:9 clknet_0_h1\/gclk5:8 0.00360104
56 h1/clkbuf_4_6__f_h1\/gclk5:A clknet_0_h1\/gclk5:69 1e-06
57 clknet_0_h1\/gclk5:69 clknet_0_h1\/gclk5:70 1e-06
58 clknet_0_h1\/gclk5:70 clknet_0_h1\/gclk5:71 1e-06
59 clknet_0_h1\/gclk5:71 clknet_0_h1\/gclk5:72 1e-06
60 clknet_0_h1\/gclk5:72 clknet_0_h1\/gclk5:9 1e-06
61 clknet_0_h1\/gclk5:10 clknet_0_h1\/gclk5:18 0.00427094
62 h1/clkbuf_4_12__f_h1\/gclk5:A clknet_0_h1\/gclk5:74 1e-06
63 clknet_0_h1\/gclk5:74 clknet_0_h1\/gclk5:75 1e-06
64 clknet_0_h1\/gclk5:75 clknet_0_h1\/gclk5:76 1e-06
65 clknet_0_h1\/gclk5:76 clknet_0_h1\/gclk5:77 1e-06
66 clknet_0_h1\/gclk5:77 clknet_0_h1\/gclk5:10 1e-06
67 clknet_0_h1\/gclk5:11 clknet_0_h1\/gclk5:20 0.00456984
68 h1/clkbuf_4_1__f_h1\/gclk5:A clknet_0_h1\/gclk5:79 1e-06
69 clknet_0_h1\/gclk5:79 clknet_0_h1\/gclk5:80 1e-06
70 clknet_0_h1\/gclk5:80 clknet_0_h1\/gclk5:81 1e-06
71 clknet_0_h1\/gclk5:81 clknet_0_h1\/gclk5:82 1e-06
72 clknet_0_h1\/gclk5:82 clknet_0_h1\/gclk5:11 1e-06
73 clknet_0_h1\/gclk5:12 clknet_0_h1\/gclk5:11 0.00712774
74 h1/clkbuf_4_4__f_h1\/gclk5:A clknet_0_h1\/gclk5:84 1e-06
75 clknet_0_h1\/gclk5:84 clknet_0_h1\/gclk5:85 1e-06
76 clknet_0_h1\/gclk5:85 clknet_0_h1\/gclk5:86 1e-06
77 clknet_0_h1\/gclk5:86 clknet_0_h1\/gclk5:87 1e-06
78 clknet_0_h1\/gclk5:87 clknet_0_h1\/gclk5:12 1e-06
79 clknet_0_h1\/gclk5:13 clknet_0_h1\/gclk5:23 0.0166752
80 h1/clkbuf_4_15__f_h1\/gclk5:A clknet_0_h1\/gclk5:89 1e-06
81 clknet_0_h1\/gclk5:89 clknet_0_h1\/gclk5:90 1e-06
82 clknet_0_h1\/gclk5:90 clknet_0_h1\/gclk5:91 1e-06
83 clknet_0_h1\/gclk5:91 clknet_0_h1\/gclk5:92 1e-06
84 clknet_0_h1\/gclk5:92 clknet_0_h1\/gclk5:13 1e-06
85 clknet_0_h1\/gclk5:14 clknet_0_h1\/gclk5:20 0.00951592
86 h1/clkbuf_4_5__f_h1\/gclk5:A clknet_0_h1\/gclk5:94 1e-06
87 clknet_0_h1\/gclk5:94 clknet_0_h1\/gclk5:95 1e-06
88 clknet_0_h1\/gclk5:95 clknet_0_h1\/gclk5:96 1e-06
89 clknet_0_h1\/gclk5:96 clknet_0_h1\/gclk5:97 1e-06
90 clknet_0_h1\/gclk5:97 clknet_0_h1\/gclk5:14 1e-06
91 clknet_0_h1\/gclk5:15 clknet_0_h1\/gclk5:19 0.0161157
92 h1/clkbuf_4_13__f_h1\/gclk5:A clknet_0_h1\/gclk5:99 1e-06
93 clknet_0_h1\/gclk5:99 clknet_0_h1\/gclk5:100 1e-06
94 clknet_0_h1\/gclk5:100 clknet_0_h1\/gclk5:101 1e-06
95 clknet_0_h1\/gclk5:101 clknet_0_h1\/gclk5:102 1e-06
96 clknet_0_h1\/gclk5:102 clknet_0_h1\/gclk5:15 1e-06
97 clknet_0_h1\/gclk5:16 clknet_0_h1\/gclk5:17 0.0147316
98 h1/clkbuf_4_7__f_h1\/gclk5:A clknet_0_h1\/gclk5:104 1e-06
99 clknet_0_h1\/gclk5:104 clknet_0_h1\/gclk5:105 1e-06
100 clknet_0_h1\/gclk5:105 clknet_0_h1\/gclk5:106 1e-06
101 clknet_0_h1\/gclk5:106 clknet_0_h1\/gclk5:107 1e-06
102 clknet_0_h1\/gclk5:107 clknet_0_h1\/gclk5:16 1e-06
103 clknet_0_h1\/gclk5:17 clknet_0_h1\/gclk5:21 0.0031925
104 clknet_0_h1\/gclk5:18 clknet_0_h1\/gclk5:5 0.00603654
105 clknet_0_h1\/gclk5:19 clknet_0_h1\/gclk5:7 0.00565128
106 clknet_0_h1\/gclk5:20 clknet_0_h1\/gclk5:17 0.0112199
107 clknet_0_h1\/gclk5:21 clknet_0_h1\/gclk5:9 0.00310313
108 clknet_0_h1\/gclk5:22 clknet_0_h1\/gclk5:19 0.00366863
109 clknet_0_h1\/gclk5:23 clknet_0_h1\/gclk5:6 0.00108745
*END

*D_NET clknet_4_0__leaf_h1\/gclk5 1.4814
*CONN
*I h1/ff100:CK I *D DFF_X1
*I h1/ff11:CK I *D DFF_X1
*I h1/ff113:CK I *D DFF_X1
*I h1/ff134:CK I *D DFF_X1
*I h1/ff142:CK I *D DFF_X1
*I h1/ff45:CK I *D DFF_X1
*I h1/clkbuf_4_0__f_h1\/gclk5:Z O *D CLKBUF_X3
*I clkload0:A I *D INV_X4
*CAP
1 clknet_4_0__leaf_h1\/gclk5:0 0.0200114
2 clknet_4_0__leaf_h1\/gclk5:1 0.0736568
3 clknet_4_0__leaf_h1\/gclk5:2 0.143706
4 clknet_4_0__leaf_h1\/gclk5:3 0.266668
5 clknet_4_0__leaf_h1\/gclk5:4 0.183766
6 clknet_4_0__leaf_h1\/gclk5:5 0.151447
7 clknet_4_0__leaf_h1\/gclk5:6 0.210448
8 clknet_4_0__leaf_h1\/gclk5:7 0.0462234
9 clknet_4_0__leaf_h1\/gclk5:8 0.226607
10 clknet_4_0__leaf_h1\/gclk5:9 0.158869
*RES
1 clknet_4_0__leaf_h1\/gclk5:0 clknet_4_0__leaf_h1\/gclk5:1 0.00190316
2 clkload0:A clknet_4_0__leaf_h1\/gclk5:10 1e-06
3 clknet_4_0__leaf_h1\/gclk5:10 clknet_4_0__leaf_h1\/gclk5:0 1e-06
4 h1/clkbuf_4_0__f_h1\/gclk5:Z clknet_4_0__leaf_h1\/gclk5:12 1e-06
5 clknet_4_0__leaf_h1\/gclk5:12 clknet_4_0__leaf_h1\/gclk5:1 1e-06
6 clknet_4_0__leaf_h1\/gclk5:1 clknet_4_0__leaf_h1\/gclk5:1 1e-06
7 clknet_4_0__leaf_h1\/gclk5:2 clknet_4_0__leaf_h1\/gclk5:9 0.00212296
8 h1/ff11:CK clknet_4_0__leaf_h1\/gclk5:14 1e-06
9 clknet_4_0__leaf_h1\/gclk5:14 clknet_4_0__leaf_h1\/gclk5:2 1e-06
10 clknet_4_0__leaf_h1\/gclk5:3 clknet_4_0__leaf_h1\/gclk5:9 0.00788424
11 h1/ff113:CK clknet_4_0__leaf_h1\/gclk5:16 1e-06
12 clknet_4_0__leaf_h1\/gclk5:16 clknet_4_0__leaf_h1\/gclk5:3 1e-06
13 clknet_4_0__leaf_h1\/gclk5:4 clknet_4_0__leaf_h1\/gclk5:3 0.0174769
14 h1/ff100:CK clknet_4_0__leaf_h1\/gclk5:18 1e-06
15 clknet_4_0__leaf_h1\/gclk5:18 clknet_4_0__leaf_h1\/gclk5:4 1e-06
16 clknet_4_0__leaf_h1\/gclk5:5 clknet_4_0__leaf_h1\/gclk5:6 0.0144032
17 h1/ff142:CK clknet_4_0__leaf_h1\/gclk5:20 1e-06
18 clknet_4_0__leaf_h1\/gclk5:20 clknet_4_0__leaf_h1\/gclk5:5 1e-06
19 h1/ff134:CK clknet_4_0__leaf_h1\/gclk5:22 1e-06
20 clknet_4_0__leaf_h1\/gclk5:22 clknet_4_0__leaf_h1\/gclk5:6 1e-06
21 clknet_4_0__leaf_h1\/gclk5:6 clknet_4_0__leaf_h1\/gclk5:8 0.00561118
22 clknet_4_0__leaf_h1\/gclk5:7 clknet_4_0__leaf_h1\/gclk5:8 0.00439602
23 h1/ff45:CK clknet_4_0__leaf_h1\/gclk5:24 1e-06
24 clknet_4_0__leaf_h1\/gclk5:24 clknet_4_0__leaf_h1\/gclk5:7 1e-06
25 clknet_4_0__leaf_h1\/gclk5:8 clknet_4_0__leaf_h1\/gclk5:2 0.011544
26 clknet_4_0__leaf_h1\/gclk5:9 clknet_4_0__leaf_h1\/gclk5:1 0.00510188
*END

*D_NET clknet_4_1__leaf_h1\/gclk5 1.44852
*CONN
*I h1/ff10:CK I *D DFF_X1
*I h1/ff16:CK I *D DFF_X1
*I h1/ff2:CK I *D DFF_X1
*I h1/ff26:CK I *D DFF_X1
*I h1/clkbuf_4_1__f_h1\/gclk5:Z O *D CLKBUF_X3
*I clkload1:A I *D INV_X8
*CAP
1 clknet_4_1__leaf_h1\/gclk5:0 0.269449
2 clknet_4_1__leaf_h1\/gclk5:1 0.435533
3 clknet_4_1__leaf_h1\/gclk5:2 0.101842
4 clknet_4_1__leaf_h1\/gclk5:3 0.208588
5 clknet_4_1__leaf_h1\/gclk5:4 0.0801394
6 clknet_4_1__leaf_h1\/gclk5:5 0.0200114
7 clknet_4_1__leaf_h1\/gclk5:6 0.332959
*RES
1 clknet_4_1__leaf_h1\/gclk5:0 clknet_4_1__leaf_h1\/gclk5:1 0.0256256
2 h1/ff10:CK clknet_4_1__leaf_h1\/gclk5:7 1e-06
3 clknet_4_1__leaf_h1\/gclk5:7 clknet_4_1__leaf_h1\/gclk5:0 1e-06
4 h1/ff26:CK clknet_4_1__leaf_h1\/gclk5:9 1e-06
5 clknet_4_1__leaf_h1\/gclk5:9 clknet_4_1__leaf_h1\/gclk5:1 1e-06
6 clknet_4_1__leaf_h1\/gclk5:1 clknet_4_1__leaf_h1\/gclk5:6 0.0157953
7 clknet_4_1__leaf_h1\/gclk5:2 clknet_4_1__leaf_h1\/gclk5:3 0.00968554
8 h1/ff2:CK clknet_4_1__leaf_h1\/gclk5:11 1e-06
9 clknet_4_1__leaf_h1\/gclk5:11 clknet_4_1__leaf_h1\/gclk5:2 1e-06
10 h1/ff16:CK clknet_4_1__leaf_h1\/gclk5:13 1e-06
11 clknet_4_1__leaf_h1\/gclk5:13 clknet_4_1__leaf_h1\/gclk5:3 1e-06
12 clknet_4_1__leaf_h1\/gclk5:3 clknet_4_1__leaf_h1\/gclk5:6 0.0101519
13 clknet_4_1__leaf_h1\/gclk5:4 clknet_4_1__leaf_h1\/gclk5:5 0.00190316
14 clkload1:A clknet_4_1__leaf_h1\/gclk5:15 1e-06
15 clknet_4_1__leaf_h1\/gclk5:15 clknet_4_1__leaf_h1\/gclk5:4 1e-06
16 h1/clkbuf_4_1__f_h1\/gclk5:Z clknet_4_1__leaf_h1\/gclk5:17 1e-06
17 clknet_4_1__leaf_h1\/gclk5:17 clknet_4_1__leaf_h1\/gclk5:5 1e-06
18 clknet_4_1__leaf_h1\/gclk5:5 clknet_4_1__leaf_h1\/gclk5:5 1e-06
19 clknet_4_1__leaf_h1\/gclk5:6 clknet_4_1__leaf_h1\/gclk5:4 0.0057184
*END

*D_NET clknet_4_2__leaf_h1\/gclk5 1.06427
*CONN
*I h1/ff116:CK I *D DFF_X1
*I h1/ff119:CK I *D DFF_X1
*I h1/ff139:CK I *D DFF_X1
*I h1/ff14:CK I *D DFF_X1
*I h1/ff47:CK I *D DFF_X1
*I h1/ff85:CK I *D DFF_X1
*I h1/clkbuf_4_2__f_h1\/gclk5:Z O *D CLKBUF_X3
*I clkload2:A I *D INV_X4
*CAP
1 clknet_4_2__leaf_h1\/gclk5:0 0.226607
2 clknet_4_2__leaf_h1\/gclk5:1 0.0071402
3 clknet_4_2__leaf_h1\/gclk5:2 0.00167231
4 clknet_4_2__leaf_h1\/gclk5:3 0.0532321
5 clknet_4_2__leaf_h1\/gclk5:4 0.278505
6 clknet_4_2__leaf_h1\/gclk5:5 0.0182451
7 clknet_4_2__leaf_h1\/gclk5:6 0.0590006
8 clknet_4_2__leaf_h1\/gclk5:7 0.0428412
9 clknet_4_2__leaf_h1\/gclk5:8 0.173244
10 clknet_4_2__leaf_h1\/gclk5:9 0.124766
11 clknet_4_2__leaf_h1\/gclk5:10 0.070237
12 clknet_4_2__leaf_h1\/gclk5:11 0.00877493
*RES
1 clknet_4_2__leaf_h1\/gclk5:0 clknet_4_2__leaf_h1\/gclk5:4 0.0215512
2 h1/ff85:CK clknet_4_2__leaf_h1\/gclk5:12 1e-06
3 clknet_4_2__leaf_h1\/gclk5:12 clknet_4_2__leaf_h1\/gclk5:0 1e-06
4 h1/ff47:CK clknet_4_2__leaf_h1\/gclk5:14 1e-06
5 clknet_4_2__leaf_h1\/gclk5:14 clknet_4_2__leaf_h1\/gclk5:4 1e-06
6 clknet_4_2__leaf_h1\/gclk5:1 clknet_4_2__leaf_h1\/gclk5:9 0.00067906
7 h1/ff139:CK clknet_4_2__leaf_h1\/gclk5:16 1e-06
8 clknet_4_2__leaf_h1\/gclk5:16 clknet_4_2__leaf_h1\/gclk5:1 1e-06
9 clknet_4_2__leaf_h1\/gclk5:2 clknet_4_2__leaf_h1\/gclk5:11 0.000159043
10 clkload2:A clknet_4_2__leaf_h1\/gclk5:18 1e-06
11 clknet_4_2__leaf_h1\/gclk5:18 clknet_4_2__leaf_h1\/gclk5:2 1e-06
12 clknet_4_2__leaf_h1\/gclk5:3 clknet_4_2__leaf_h1\/gclk5:11 0.000666551
13 h1/ff119:CK clknet_4_2__leaf_h1\/gclk5:20 1e-06
14 clknet_4_2__leaf_h1\/gclk5:20 clknet_4_2__leaf_h1\/gclk5:3 1e-06
15 clknet_4_2__leaf_h1\/gclk5:4 clknet_4_2__leaf_h1\/gclk5:10 0.00493569
16 clknet_4_2__leaf_h1\/gclk5:5 clknet_4_2__leaf_h1\/gclk5:5 1e-06
17 h1/clkbuf_4_2__f_h1\/gclk5:Z clknet_4_2__leaf_h1\/gclk5:22 1e-06
18 clknet_4_2__leaf_h1\/gclk5:22 clknet_4_2__leaf_h1\/gclk5:5 1e-06
19 clknet_4_2__leaf_h1\/gclk5:6 clknet_4_2__leaf_h1\/gclk5:8 0.00561118
20 h1/ff116:CK clknet_4_2__leaf_h1\/gclk5:24 1e-06
21 clknet_4_2__leaf_h1\/gclk5:24 clknet_4_2__leaf_h1\/gclk5:6 1e-06
22 clknet_4_2__leaf_h1\/gclk5:7 clknet_4_2__leaf_h1\/gclk5:8 0.00407436
23 h1/ff14:CK clknet_4_2__leaf_h1\/gclk5:26 1e-06
24 clknet_4_2__leaf_h1\/gclk5:26 clknet_4_2__leaf_h1\/gclk5:7 1e-06
25 clknet_4_2__leaf_h1\/gclk5:8 clknet_4_2__leaf_h1\/gclk5:9 0.0067906
26 clknet_4_2__leaf_h1\/gclk5:9 clknet_4_2__leaf_h1\/gclk5:3 0.00439602
27 clknet_4_2__leaf_h1\/gclk5:10 clknet_4_2__leaf_h1\/gclk5:5 0.00173518
28 clknet_4_2__leaf_h1\/gclk5:11 clknet_4_2__leaf_h1\/gclk5:10 8.935e-06
*END

*D_NET clknet_4_3__leaf_h1\/gclk5 0.940853
*CONN
*I h1/ff117:CK I *D DFF_X1
*I h1/ff129:CK I *D DFF_X1
*I h1/ff3:CK I *D DFF_X1
*I h1/ff51:CK I *D DFF_X1
*I h1/ff53:CK I *D DFF_X1
*I h1/ff65:CK I *D DFF_X1
*I h1/clkbuf_4_3__f_h1\/gclk5:Z O *D CLKBUF_X3
*I clkload3:A I *D INV_X4
*CAP
1 clknet_4_3__leaf_h1\/gclk5:0 0.167607
2 clknet_4_3__leaf_h1\/gclk5:1 0.0462234
3 clknet_4_3__leaf_h1\/gclk5:2 0.0462234
4 clknet_4_3__leaf_h1\/gclk5:3 0.105224
5 clknet_4_3__leaf_h1\/gclk5:4 0.253909
6 clknet_4_3__leaf_h1\/gclk5:5 0.0531193
7 clknet_4_3__leaf_h1\/gclk5:6 0.070951
8 clknet_4_3__leaf_h1\/gclk5:7 0.0200114
9 clknet_4_3__leaf_h1\/gclk5:8 0.177584
*RES
1 clknet_4_3__leaf_h1\/gclk5:0 clknet_4_3__leaf_h1\/gclk5:4 0.011544
2 h1/ff117:CK clknet_4_3__leaf_h1\/gclk5:9 1e-06
3 clknet_4_3__leaf_h1\/gclk5:9 clknet_4_3__leaf_h1\/gclk5:0 1e-06
4 h1/ff51:CK clknet_4_3__leaf_h1\/gclk5:11 1e-06
5 clknet_4_3__leaf_h1\/gclk5:11 clknet_4_3__leaf_h1\/gclk5:4 1e-06
6 clknet_4_3__leaf_h1\/gclk5:1 clknet_4_3__leaf_h1\/gclk5:0 0.00439602
7 h1/ff53:CK clknet_4_3__leaf_h1\/gclk5:13 1e-06
8 clknet_4_3__leaf_h1\/gclk5:13 clknet_4_3__leaf_h1\/gclk5:1 1e-06
9 clknet_4_3__leaf_h1\/gclk5:2 clknet_4_3__leaf_h1\/gclk5:3 0.00439602
10 h1/ff129:CK clknet_4_3__leaf_h1\/gclk5:15 1e-06
11 clknet_4_3__leaf_h1\/gclk5:15 clknet_4_3__leaf_h1\/gclk5:2 1e-06
12 h1/ff3:CK clknet_4_3__leaf_h1\/gclk5:17 1e-06
13 clknet_4_3__leaf_h1\/gclk5:17 clknet_4_3__leaf_h1\/gclk5:3 1e-06
14 clknet_4_3__leaf_h1\/gclk5:3 clknet_4_3__leaf_h1\/gclk5:4 0.00561118
15 clknet_4_3__leaf_h1\/gclk5:4 clknet_4_3__leaf_h1\/gclk5:8 0.00699253
16 clknet_4_3__leaf_h1\/gclk5:5 clknet_4_3__leaf_h1\/gclk5:8 0.00505185
17 h1/ff65:CK clknet_4_3__leaf_h1\/gclk5:19 1e-06
18 clknet_4_3__leaf_h1\/gclk5:19 clknet_4_3__leaf_h1\/gclk5:5 1e-06
19 clknet_4_3__leaf_h1\/gclk5:6 clknet_4_3__leaf_h1\/gclk5:7 0.00190316
20 clkload3:A clknet_4_3__leaf_h1\/gclk5:21 1e-06
21 clknet_4_3__leaf_h1\/gclk5:21 clknet_4_3__leaf_h1\/gclk5:6 1e-06
22 h1/clkbuf_4_3__f_h1\/gclk5:Z clknet_4_3__leaf_h1\/gclk5:23 1e-06
23 clknet_4_3__leaf_h1\/gclk5:23 clknet_4_3__leaf_h1\/gclk5:7 1e-06
24 clknet_4_3__leaf_h1\/gclk5:7 clknet_4_3__leaf_h1\/gclk5:7 1e-06
25 clknet_4_3__leaf_h1\/gclk5:8 clknet_4_3__leaf_h1\/gclk5:6 0.00484456
*END

*D_NET clknet_4_4__leaf_h1\/gclk5 1.69129
*CONN
*I h1/ff0\/name:CK I *D DFF_X1
*I h1/ff112:CK I *D DFF_X1
*I h1/ff120:CK I *D DFF_X1
*I h1/ff13:CK I *D DFF_X1
*I h1/ff132:CK I *D DFF_X1
*I h1/ff140:CK I *D DFF_X1
*I h1/ff15:CK I *D DFF_X1
*I h1/ff19:CK I *D DFF_X1
*I h1/clkbuf_4_4__f_h1\/gclk5:Z O *D CLKBUF_X3
*I clkload4:A I *D INV_X4
*CAP
1 clknet_4_4__leaf_h1\/gclk5:0 0.272831
2 clknet_4_4__leaf_h1\/gclk5:1 0.134762
3 clknet_4_4__leaf_h1\/gclk5:2 0.105224
4 clknet_4_4__leaf_h1\/gclk5:3 0.0462234
5 clknet_4_4__leaf_h1\/gclk5:4 0.0142804
6 clknet_4_4__leaf_h1\/gclk5:5 0.108456
7 clknet_4_4__leaf_h1\/gclk5:6 9.395e-05
8 clknet_4_4__leaf_h1\/gclk5:7 0.378055
9 clknet_4_4__leaf_h1\/gclk5:8 0.298536
10 clknet_4_4__leaf_h1\/gclk5:9 0.121383
11 clknet_4_4__leaf_h1\/gclk5:10 0.119504
12 clknet_4_4__leaf_h1\/gclk5:11 0.0919395
*RES
1 clknet_4_4__leaf_h1\/gclk5:0 clknet_4_4__leaf_h1\/gclk5:7 0.0259472
2 h1/ff120:CK clknet_4_4__leaf_h1\/gclk5:12 1e-06
3 clknet_4_4__leaf_h1\/gclk5:12 clknet_4_4__leaf_h1\/gclk5:0 1e-06
4 h1/ff15:CK clknet_4_4__leaf_h1\/gclk5:14 1e-06
5 clknet_4_4__leaf_h1\/gclk5:14 clknet_4_4__leaf_h1\/gclk5:7 1e-06
6 clknet_4_4__leaf_h1\/gclk5:1 clknet_4_4__leaf_h1\/gclk5:5 0.00842034
7 h1/ff13:CK clknet_4_4__leaf_h1\/gclk5:16 1e-06
8 clknet_4_4__leaf_h1\/gclk5:16 clknet_4_4__leaf_h1\/gclk5:1 1e-06
9 clkload4:A clknet_4_4__leaf_h1\/gclk5:18 1e-06
10 clknet_4_4__leaf_h1\/gclk5:18 clknet_4_4__leaf_h1\/gclk5:5 1e-06
11 clknet_4_4__leaf_h1\/gclk5:2 clknet_4_4__leaf_h1\/gclk5:1 0.00439602
12 h1/ff19:CK clknet_4_4__leaf_h1\/gclk5:20 1e-06
13 clknet_4_4__leaf_h1\/gclk5:20 clknet_4_4__leaf_h1\/gclk5:2 1e-06
14 clknet_4_4__leaf_h1\/gclk5:3 clknet_4_4__leaf_h1\/gclk5:10 0.00439602
15 h1/ff112:CK clknet_4_4__leaf_h1\/gclk5:22 1e-06
16 clknet_4_4__leaf_h1\/gclk5:22 clknet_4_4__leaf_h1\/gclk5:3 1e-06
17 clknet_4_4__leaf_h1\/gclk5:4 clknet_4_4__leaf_h1\/gclk5:10 0.00135812
18 h1/ff132:CK clknet_4_4__leaf_h1\/gclk5:24 1e-06
19 clknet_4_4__leaf_h1\/gclk5:24 clknet_4_4__leaf_h1\/gclk5:4 1e-06
20 clknet_4_4__leaf_h1\/gclk5:5 clknet_4_4__leaf_h1\/gclk5:11 0.00189422
21 clknet_4_4__leaf_h1\/gclk5:6 clknet_4_4__leaf_h1\/gclk5:6 1e-06
22 h1/clkbuf_4_4__f_h1\/gclk5:Z clknet_4_4__leaf_h1\/gclk5:26 1e-06
23 clknet_4_4__leaf_h1\/gclk5:26 clknet_4_4__leaf_h1\/gclk5:6 1e-06
24 clknet_4_4__leaf_h1\/gclk5:7 clknet_4_4__leaf_h1\/gclk5:8 0.0100072
25 h1/ff0\/name:CK clknet_4_4__leaf_h1\/gclk5:28 1e-06
26 clknet_4_4__leaf_h1\/gclk5:28 clknet_4_4__leaf_h1\/gclk5:8 1e-06
27 clknet_4_4__leaf_h1\/gclk5:8 clknet_4_4__leaf_h1\/gclk5:11 0.00684064
28 clknet_4_4__leaf_h1\/gclk5:9 clknet_4_4__leaf_h1\/gclk5:8 0.011544
29 h1/ff140:CK clknet_4_4__leaf_h1\/gclk5:30 1e-06
30 clknet_4_4__leaf_h1\/gclk5:30 clknet_4_4__leaf_h1\/gclk5:9 1e-06
31 clknet_4_4__leaf_h1\/gclk5:10 clknet_4_4__leaf_h1\/gclk5:2 0.00561118
32 clknet_4_4__leaf_h1\/gclk5:11 clknet_4_4__leaf_h1\/gclk5:6 8.935e-06
*END

*D_NET clknet_4_5__leaf_h1\/gclk5 1.5787
*CONN
*I h1/ff101:CK I *D DFF_X1
*I h1/ff130:CK I *D DFF_X1
*I h1/ff131:CK I *D DFF_X1
*I h1/ff133:CK I *D DFF_X1
*I h1/ff31:CK I *D DFF_X1
*I h1/ff32:CK I *D DFF_X1
*I h1/ff41:CK I *D DFF_X1
*I h1/ff58:CK I *D DFF_X1
*I h1/clkbuf_4_5__f_h1\/gclk5:Z O *D CLKBUF_X3
*I clkload5:A I *D INV_X4
*CAP
1 clknet_4_5__leaf_h1\/gclk5:0 0.215634
2 clknet_4_5__leaf_h1\/gclk5:1 0.180384
3 clknet_4_5__leaf_h1\/gclk5:2 0.0590006
4 clknet_4_5__leaf_h1\/gclk5:3 0.105224
5 clknet_4_5__leaf_h1\/gclk5:4 0.331831
6 clknet_4_5__leaf_h1\/gclk5:5 0.112815
7 clknet_4_5__leaf_h1\/gclk5:6 0.0753667
8 clknet_4_5__leaf_h1\/gclk5:7 9.395e-05
9 clknet_4_5__leaf_h1\/gclk5:8 0.0462234
10 clknet_4_5__leaf_h1\/gclk5:9 0.0998313
11 clknet_4_5__leaf_h1\/gclk5:10 0.278675
12 clknet_4_5__leaf_h1\/gclk5:11 0.0736192
*RES
1 clknet_4_5__leaf_h1\/gclk5:0 clknet_4_5__leaf_h1\/gclk5:10 0.0205076
2 h1/ff31:CK clknet_4_5__leaf_h1\/gclk5:12 1e-06
3 clknet_4_5__leaf_h1\/gclk5:12 clknet_4_5__leaf_h1\/gclk5:0 1e-06
4 clknet_4_5__leaf_h1\/gclk5:1 clknet_4_5__leaf_h1\/gclk5:4 0.011544
5 h1/ff131:CK clknet_4_5__leaf_h1\/gclk5:14 1e-06
6 clknet_4_5__leaf_h1\/gclk5:14 clknet_4_5__leaf_h1\/gclk5:1 1e-06
7 h1/ff101:CK clknet_4_5__leaf_h1\/gclk5:16 1e-06
8 clknet_4_5__leaf_h1\/gclk5:16 clknet_4_5__leaf_h1\/gclk5:4 1e-06
9 clknet_4_5__leaf_h1\/gclk5:2 clknet_4_5__leaf_h1\/gclk5:1 0.00561118
10 h1/ff130:CK clknet_4_5__leaf_h1\/gclk5:18 1e-06
11 clknet_4_5__leaf_h1\/gclk5:18 clknet_4_5__leaf_h1\/gclk5:2 1e-06
12 clknet_4_5__leaf_h1\/gclk5:3 clknet_4_5__leaf_h1\/gclk5:4 0.0100072
13 h1/ff133:CK clknet_4_5__leaf_h1\/gclk5:20 1e-06
14 clknet_4_5__leaf_h1\/gclk5:20 clknet_4_5__leaf_h1\/gclk5:3 1e-06
15 clknet_4_5__leaf_h1\/gclk5:4 clknet_4_5__leaf_h1\/gclk5:5 0.0100072
16 h1/ff41:CK clknet_4_5__leaf_h1\/gclk5:22 1e-06
17 clknet_4_5__leaf_h1\/gclk5:22 clknet_4_5__leaf_h1\/gclk5:5 1e-06
18 clknet_4_5__leaf_h1\/gclk5:5 clknet_4_5__leaf_h1\/gclk5:10 0.000721948
19 clknet_4_5__leaf_h1\/gclk5:6 clknet_4_5__leaf_h1\/gclk5:11 0.00189422
20 clkload5:A clknet_4_5__leaf_h1\/gclk5:24 1e-06
21 clknet_4_5__leaf_h1\/gclk5:24 clknet_4_5__leaf_h1\/gclk5:6 1e-06
22 clknet_4_5__leaf_h1\/gclk5:7 clknet_4_5__leaf_h1\/gclk5:7 1e-06
23 h1/clkbuf_4_5__f_h1\/gclk5:Z clknet_4_5__leaf_h1\/gclk5:26 1e-06
24 clknet_4_5__leaf_h1\/gclk5:26 clknet_4_5__leaf_h1\/gclk5:7 1e-06
25 clknet_4_5__leaf_h1\/gclk5:8 clknet_4_5__leaf_h1\/gclk5:9 0.00439602
26 h1/ff58:CK clknet_4_5__leaf_h1\/gclk5:28 1e-06
27 clknet_4_5__leaf_h1\/gclk5:28 clknet_4_5__leaf_h1\/gclk5:8 1e-06
28 h1/ff32:CK clknet_4_5__leaf_h1\/gclk5:30 1e-06