*SPEF "ieee 1481-1999"
*DESIGN "multi_sink"
*DATE "11:11:11 Fri 11 11, 1111"
*VENDOR "The OpenROAD Project"
*PROGRAM "OpenROAD"
*VERSION "1.0"
*DESIGN_FLOW "NAME_SCOPE LOCAL" "PIN_CAP NONE"
*DIVIDER /
*DELIMITER :
*BUS_DELIMITER []
*T_UNIT 1 NS
*C_UNIT 1 FF
*R_UNIT 1 KOHM
*L_UNIT 1 HENRY

*PORTS
clk I

*D_NET clk 0.213642
*CONN
*P clk I
*I h1/gclk_inst:CK I *D CLKGATE_X1
*CAP
1 clk:0 0.106821
2 clk:1 0.106821
*RES
1 clk:0 clk:0 1e-06
2 clk clk:0 1e-06
3 clk:1 clk:0 0.0101591
4 h1/gclk_inst:CK clk:2 1e-06
5 clk:2 clk:1 1e-06
*END

*D_NET h1/gclk 0.159527
*CONN
*I h1/ff0\/name:CK I *D DFF_X1
*I h1/gclk_inst:GCK O *D CLKGATE_X1
*CAP
1 h1/gclk:0 0.0797636
2 h1/gclk:1 0.0797636
*RES
1 h1/gclk:0 h1/gclk:0 1e-06
2 h1/gclk_inst:GCK h1/gclk:2 1e-06
3 h1/gclk:2 h1/gclk:0 1e-06
4 h1/gclk:1 h1/gclk:0 0.00758582
5 h1/ff0\/name:CK h1/gclk:3 1e-06
6 h1/gclk:3 h1/gclk:1 1e-06
*END

