*SPEF "ieee 1481-1999"
*DESIGN "multi_sink"
*DATE "11:11:11 Fri 11 11, 1111"
*VENDOR "The OpenROAD Project"
*PROGRAM "OpenROAD"
*VERSION "1.0"
*DESIGN_FLOW "NAME_SCOPE LOCAL" "PIN_CAP NONE"
*DIVIDER /
*DELIMITER :
*BUS_DELIMITER []
*T_UNIT 1 NS
*C_UNIT 1 FF
*R_UNIT 1 KOHM
*L_UNIT 1 HENRY

*PORTS
clk I

*D_NET clk 2.53697
*CONN
*P clk I
*I clkbuf_0_clk:A I *D CLKBUF_X3
*CAP
1 clk:0 1.26848
2 clk:1 1.26848
*RES
1 clk:0 clk:1 0.0522133
2 clkbuf_0_clk:A clk:2 1e-06
3 clk:2 clk:3 1e-06
4 clk:3 clk:4 1e-06
5 clk:4 clk:5 1e-06
6 clk:5 clk:0 1e-06
7 clk clk:7 1e-06
8 clk:7 clk:8 1e-06
9 clk:8 clk:9 1e-06
10 clk:9 clk:1 1e-06
11 clk:1 clk:1 1e-06
*END

*D_NET gclk1 0.174422
*CONN
*I gclk1:GCK O *D CLKGATE_X1
*I clkbuf_0_gclk1:A I *D CLKBUF_X3
*CAP
1 gclk1:0 0.0872111
2 gclk1:1 0.0872111
*RES
1 gclk1:0 gclk1:1 0.00358978
2 clkbuf_0_gclk1:A gclk1:2 1e-06
3 gclk1:2 gclk1:3 1e-06
4 gclk1:3 gclk1:4 1e-06
5 gclk1:4 gclk1:5 1e-06
6 gclk1:5 gclk1:0 1e-06
7 gclk1:GCK gclk1:7 1e-06
8 gclk1:7 gclk1:8 1e-06
9 gclk1:8 gclk1:9 1e-06
10 gclk1:9 gclk1:10 1e-06
11 gclk1:10 gclk1:1 1e-06
12 gclk1:1 gclk1:1 1e-06
*END

*D_NET gclk3 0.16457
*CONN
*I gclk3:GCK O *D CLKGATE_X1
*I clkbuf_0_gclk3:A I *D CLKBUF_X3
*CAP
1 gclk3:0 0.0822849
2 gclk3:1 0.0822849
*RES
1 gclk3:0 gclk3:1 0.00338701
2 clkbuf_0_gclk3:A gclk3:2 1e-06
3 gclk3:2 gclk3:3 1e-06
4 gclk3:3 gclk3:4 1e-06
5 gclk3:4 gclk3:5 1e-06
6 gclk3:5 gclk3:0 1e-06
7 gclk3:GCK gclk3:7 1e-06
8 gclk3:7 gclk3:8 1e-06
9 gclk3:8 gclk3:9 1e-06
10 gclk3:9 gclk3:10 1e-06
11 gclk3:10 gclk3:1 1e-06
12 gclk3:1 gclk3:1 1e-06
*END

*D_NET gclk4 0.863463
*CONN
*I gclk4:GCK O *D CLKGATE_X1
*I clkbuf_0_gclk4:A I *D CLKBUF_X3
*I delaybuf_1_core:A I *D CLKBUF_X3
*CAP
1 gclk4:0 0.0382598
2 gclk4:1 0.0186281
3 gclk4:2 0.374844
4 gclk4:3 0.431731
*RES
1 gclk4:0 gclk4:3 0.00157485
2 delaybuf_1_core:A gclk4:4 1e-06
3 gclk4:4 gclk4:5 1e-06
4 gclk4:5 gclk4:6 1e-06
5 gclk4:6 gclk4:7 1e-06
6 gclk4:7 gclk4:0 1e-06
7 gclk4:1 gclk4:1 1e-06
8 gclk4:GCK gclk4:9 1e-06
9 gclk4:9 gclk4:10 1e-06
10 gclk4:10 gclk4:11 1e-06
11 gclk4:11 gclk4:12 1e-06
12 gclk4:12 gclk4:1 1e-06
13 gclk4:2 gclk4:3 0.0154293
14 clkbuf_0_gclk4:A gclk4:14 1e-06
15 gclk4:14 gclk4:15 1e-06
16 gclk4:15 gclk4:16 1e-06
17 gclk4:16 gclk4:17 1e-06
18 gclk4:17 gclk4:2 1e-06
19 gclk4:3 gclk4:1 0.000766771
*END

*D_NET hi_gclk2 0.16457
*CONN
*I hi_inst\/gclk2_inst:GCK O *D CLKGATE_X1
*I clkbuf_0_hi_gclk2:A I *D CLKBUF_X3
*CAP
1 hi_gclk2:0 0.0822849
2 hi_gclk2:1 0.0822849
*RES
1 hi_gclk2:0 hi_gclk2:1 0.00338701
2 clkbuf_0_hi_gclk2:A hi_gclk2:2 1e-06
3 hi_gclk2:2 hi_gclk2:3 1e-06
4 hi_gclk2:3 hi_gclk2:4 1e-06
5 hi_gclk2:4 hi_gclk2:5 1e-06
6 hi_gclk2:5 hi_gclk2:0 1e-06
7 hi_inst\/gclk2_inst:GCK hi_gclk2:7 1e-06
8 hi_gclk2:7 hi_gclk2:8 1e-06
9 hi_gclk2:8 hi_gclk2:9 1e-06
10 hi_gclk2:9 hi_gclk2:10 1e-06
11 hi_gclk2:10 hi_gclk2:1 1e-06
12 hi_gclk2:1 hi_gclk2:1 1e-06
*END

*D_NET hi_gclk5 0.305421
*CONN
*I hi_gclk5:GCK O *D CLKGATE_X1
*I clkbuf_0_hi_gclk5:A I *D CLKBUF_X3
*CAP
1 hi_gclk5:0 0.152711
2 hi_gclk5:1 0.152711
*RES
1 hi_gclk5:0 hi_gclk5:1 0.00628587
2 clkbuf_0_hi_gclk5:A hi_gclk5:2 1e-06
3 hi_gclk5:2 hi_gclk5:3 1e-06
4 hi_gclk5:3 hi_gclk5:4 1e-06
5 hi_gclk5:4 hi_gclk5:5 1e-06
6 hi_gclk5:5 hi_gclk5:0 1e-06
7 hi_gclk5:GCK hi_gclk5:7 1e-06
8 hi_gclk5:7 hi_gclk5:8 1e-06
9 hi_gclk5:8 hi_gclk5:9 1e-06
10 hi_gclk5:9 hi_gclk5:10 1e-06
11 hi_gclk5:10 hi_gclk5:1 1e-06
12 hi_gclk5:1 hi_gclk5:1 1e-06
*END

*D_NET gclk4_regs 0.038132
*CONN
*I clkbuf_regs_0_core:Z O *D CLKBUF_X3
*I clkbuf_0_gclk4_regs:A I *D CLKBUF_X3
*CAP
1 gclk4_regs:0 0.019066
2 gclk4_regs:1 0.019066
*RES
1 gclk4_regs:0 gclk4_regs:1 0.000784795
2 clkbuf_0_gclk4_regs:A gclk4_regs:2 1e-06
3 gclk4_regs:2 gclk4_regs:3 1e-06
4 gclk4_regs:3 gclk4_regs:4 1e-06
5 gclk4_regs:4 gclk4_regs:5 1e-06
6 gclk4_regs:5 gclk4_regs:0 1e-06
7 clkbuf_regs_0_core:Z gclk4_regs:7 1e-06
8 gclk4_regs:7 gclk4_regs:8 1e-06
9 gclk4_regs:8 gclk4_regs:9 1e-06
10 gclk4_regs:9 gclk4_regs:10 1e-06
11 gclk4_regs:10 gclk4_regs:1 1e-06
12 gclk4_regs:1 gclk4_regs:1 1e-06
*END

*D_NET clknet_0_clk 0.763772
*CONN
*I clkbuf_0_clk:Z O *D CLKBUF_X3
*I clkbuf_1_0__f_clk:A I *D CLKBUF_X3
*I delaybuf_6_core:A I *D CLKBUF_X3
*CAP
1 clknet_0_clk:0 0.260082
2 clknet_0_clk:1 0.10739
3 clknet_0_clk:2 0.0144135
4 clknet_0_clk:3 0.381886
*RES
1 clknet_0_clk:0 clknet_0_clk:3 0.0107055
2 clkbuf_1_0__f_clk:A clknet_0_clk:4 1e-06
3 clknet_0_clk:4 clknet_0_clk:5 1e-06
4 clknet_0_clk:5 clknet_0_clk:6 1e-06
5 clknet_0_clk:6 clknet_0_clk:7 1e-06
6 clknet_0_clk:7 clknet_0_clk:0 1e-06
7 clknet_0_clk:1 clknet_0_clk:3 0.00442039
8 delaybuf_6_core:A clknet_0_clk:9 1e-06
9 clknet_0_clk:9 clknet_0_clk:10 1e-06
10 clknet_0_clk:10 clknet_0_clk:11 1e-06
11 clknet_0_clk:11 clknet_0_clk:12 1e-06
12 clknet_0_clk:12 clknet_0_clk:1 1e-06
13 clknet_0_clk:2 clknet_0_clk:2 1e-06
14 clkbuf_0_clk:Z clknet_0_clk:14 1e-06
15 clknet_0_clk:14 clknet_0_clk:15 1e-06
16 clknet_0_clk:15 clknet_0_clk:16 1e-06
17 clknet_0_clk:16 clknet_0_clk:17 1e-06
18 clknet_0_clk:17 clknet_0_clk:2 1e-06
19 clknet_0_clk:3 clknet_0_clk:2 0.00059329
*END

*D_NET clknet_1_0__leaf_clk 0.48477
*CONN
*I gclk4:CK I *D CLKGATE_X1
*I clkbuf_1_0__f_clk:Z O *D CLKBUF_X3
*I delaybuf_3_core:A I *D CLKBUF_X3
*CAP
1 clknet_1_0__leaf_clk:0 0.156177
2 clknet_1_0__leaf_clk:1 0.242385
3 clknet_1_0__leaf_clk:2 0.0862076
*RES
1 clknet_1_0__leaf_clk:0 clknet_1_0__leaf_clk:1 0.00642856
2 gclk4:CK clknet_1_0__leaf_clk:3 1e-06
3 clknet_1_0__leaf_clk:3 clknet_1_0__leaf_clk:4 1e-06
4 clknet_1_0__leaf_clk:4 clknet_1_0__leaf_clk:5 1e-06
5 clknet_1_0__leaf_clk:5 clknet_1_0__leaf_clk:6 1e-06
6 clknet_1_0__leaf_clk:6 clknet_1_0__leaf_clk:0 1e-06
7 delaybuf_3_core:A clknet_1_0__leaf_clk:8 1e-06
8 clknet_1_0__leaf_clk:8 clknet_1_0__leaf_clk:9 1e-06
9 clknet_1_0__leaf_clk:9 clknet_1_0__leaf_clk:10 1e-06
10 clknet_1_0__leaf_clk:10 clknet_1_0__leaf_clk:11 1e-06
11 clknet_1_0__leaf_clk:11 clknet_1_0__leaf_clk:1 1e-06
12 clknet_1_0__leaf_clk:1 clknet_1_0__leaf_clk:2 0.00354847
13 clkbuf_1_0__f_clk:Z clknet_1_0__leaf_clk:13 1e-06
14 clknet_1_0__leaf_clk:13 clknet_1_0__leaf_clk:14 1e-06
15 clknet_1_0__leaf_clk:14 clknet_1_0__leaf_clk:15 1e-06
16 clknet_1_0__leaf_clk:15 clknet_1_0__leaf_clk:16 1e-06
17 clknet_1_0__leaf_clk:16 clknet_1_0__leaf_clk:2 1e-06
18 clknet_1_0__leaf_clk:2 clknet_1_0__leaf_clk:2 1e-06
*END

*D_NET clknet_1_1__leaf_clk 0.556582
*CONN
*I hi_gclk5:CK I *D CLKGATE_X1
*I clkbuf_1_1__f_clk:Z O *D CLKBUF_X3
*I delaybuf_0_core:A I *D CLKBUF_X3
*CAP
1 clknet_1_1__leaf_clk:0 0.0123701
2 clknet_1_1__leaf_clk:1 0.0821572
3 clknet_1_1__leaf_clk:2 0.183764
4 clknet_1_1__leaf_clk:3 0.278291
*RES
1 clknet_1_1__leaf_clk:0 clknet_1_1__leaf_clk:3 0.000509178
2 delaybuf_0_core:A clknet_1_1__leaf_clk:4 1e-06
3 clknet_1_1__leaf_clk:4 clknet_1_1__leaf_clk:5 1e-06
4 clknet_1_1__leaf_clk:5 clknet_1_1__leaf_clk:6 1e-06
5 clknet_1_1__leaf_clk:6 clknet_1_1__leaf_clk:7 1e-06
6 clknet_1_1__leaf_clk:7 clknet_1_1__leaf_clk:0 1e-06
7 clknet_1_1__leaf_clk:1 clknet_1_1__leaf_clk:1 1e-06
8 clkbuf_1_1__f_clk:Z clknet_1_1__leaf_clk:9 1e-06
9 clknet_1_1__leaf_clk:9 clknet_1_1__leaf_clk:10 1e-06
10 clknet_1_1__leaf_clk:10 clknet_1_1__leaf_clk:11 1e-06
11 clknet_1_1__leaf_clk:11 clknet_1_1__leaf_clk:12 1e-06
12 clknet_1_1__leaf_clk:12 clknet_1_1__leaf_clk:1 1e-06
13 clknet_1_1__leaf_clk:2 clknet_1_1__leaf_clk:3 0.00756407
14 hi_gclk5:CK clknet_1_1__leaf_clk:14 1e-06
15 clknet_1_1__leaf_clk:14 clknet_1_1__leaf_clk:15 1e-06
16 clknet_1_1__leaf_clk:15 clknet_1_1__leaf_clk:16 1e-06
17 clknet_1_1__leaf_clk:16 clknet_1_1__leaf_clk:17 1e-06
18 clknet_1_1__leaf_clk:17 clknet_1_1__leaf_clk:2 1e-06
19 clknet_1_1__leaf_clk:3 clknet_1_1__leaf_clk:1 0.00338175
*END

*D_NET clknet_0_hi_gclk2 3.73917
*CONN
*I clkbuf_0_hi_gclk2:Z O *D CLKBUF_X3
*I clkbuf_2_0__f_hi_gclk2:A I *D CLKBUF_X3
*I clkbuf_2_1__f_hi_gclk2:A I *D CLKBUF_X3
*I clkbuf_2_2__f_hi_gclk2:A I *D CLKBUF_X3
*I clkbuf_2_3__f_hi_gclk2:A I *D CLKBUF_X3
*CAP
1 clknet_0_hi_gclk2:0 0.213685
2 clknet_0_hi_gclk2:1 0.161304
3 clknet_0_hi_gclk2:2 1.19556
4 clknet_0_hi_gclk2:3 0.123318
5 clknet_0_hi_gclk2:4 0.175718
6 clknet_0_hi_gclk2:5 0.960891
7 clknet_0_hi_gclk2:6 0.908692
*RES
1 clknet_0_hi_gclk2:0 clknet_0_hi_gclk2:5 0.00879571
2 clkbuf_2_2__f_hi_gclk2:A clknet_0_hi_gclk2:7 1e-06
3 clknet_0_hi_gclk2:7 clknet_0_hi_gclk2:8 1e-06
4 clknet_0_hi_gclk2:8 clknet_0_hi_gclk2:9 1e-06
5 clknet_0_hi_gclk2:9 clknet_0_hi_gclk2:10 1e-06
6 clknet_0_hi_gclk2:10 clknet_0_hi_gclk2:0 1e-06
7 clknet_0_hi_gclk2:1 clknet_0_hi_gclk2:6 0.00663959
8 clkbuf_2_0__f_hi_gclk2:A clknet_0_hi_gclk2:12 1e-06
9 clknet_0_hi_gclk2:12 clknet_0_hi_gclk2:13 1e-06
10 clknet_0_hi_gclk2:13 clknet_0_hi_gclk2:14 1e-06
11 clknet_0_hi_gclk2:14 clknet_0_hi_gclk2:15 1e-06
12 clknet_0_hi_gclk2:15 clknet_0_hi_gclk2:1 1e-06
13 clknet_0_hi_gclk2:2 clknet_0_hi_gclk2:2 1e-06
14 clkbuf_0_hi_gclk2:Z clknet_0_hi_gclk2:17 1e-06
15 clknet_0_hi_gclk2:17 clknet_0_hi_gclk2:18 1e-06
16 clknet_0_hi_gclk2:18 clknet_0_hi_gclk2:19 1e-06
17 clknet_0_hi_gclk2:19 clknet_0_hi_gclk2:20 1e-06
18 clknet_0_hi_gclk2:20 clknet_0_hi_gclk2:2 1e-06
19 clknet_0_hi_gclk2:3 clknet_0_hi_gclk2:6 0.00507601
20 clkbuf_2_1__f_hi_gclk2:A clknet_0_hi_gclk2:22 1e-06
21 clknet_0_hi_gclk2:22 clknet_0_hi_gclk2:23 1e-06
22 clknet_0_hi_gclk2:23 clknet_0_hi_gclk2:24 1e-06
23 clknet_0_hi_gclk2:24 clknet_0_hi_gclk2:25 1e-06
24 clknet_0_hi_gclk2:25 clknet_0_hi_gclk2:3 1e-06
25 clknet_0_hi_gclk2:4 clknet_0_hi_gclk2:5 0.00723288
26 clkbuf_2_3__f_hi_gclk2:A clknet_0_hi_gclk2:27 1e-06
27 clknet_0_hi_gclk2:27 clknet_0_hi_gclk2:28 1e-06
28 clknet_0_hi_gclk2:28 clknet_0_hi_gclk2:29 1e-06
29 clknet_0_hi_gclk2:29 clknet_0_hi_gclk2:30 1e-06
30 clknet_0_hi_gclk2:30 clknet_0_hi_gclk2:4 1e-06
31 clknet_0_hi_gclk2:5 clknet_0_hi_gclk2:2 0.0235236
32 clknet_0_hi_gclk2:6 clknet_0_hi_gclk2:2 0.025688
*END

*D_NET clknet_2_0__leaf_hi_gclk2 3.09719
*CONN
*I h1\/ff144:CK I *D DFF_X1
*I h1\/ff147:CK I *D DFF_X1
*I h1\/ff162:CK I *D DFF_X1
*I h1\/ff167:CK I *D DFF_X1
*I h1\/ff184:CK I *D DFF_X1
*I h1\/ff186:CK I *D DFF_X1
*I h1\/ff187:CK I *D DFF_X1
*I h1\/ff200:CK I *D DFF_X1
*I clkbuf_2_0__f_hi_gclk2:Z O *D CLKBUF_X3
*I clkload0:A I *D INV_X2
*CAP
1 clknet_2_0__leaf_hi_gclk2:0 0.231869
2 clknet_2_0__leaf_hi_gclk2:1 0.626083
3 clknet_2_0__leaf_hi_gclk2:2 0.105224
4 clknet_2_0__leaf_hi_gclk2:3 0.226607
5 clknet_2_0__leaf_hi_gclk2:4 0.0197295
6 clknet_2_0__leaf_hi_gclk2:5 0.0645624
7 clknet_2_0__leaf_hi_gclk2:6 0.315672
8 clknet_2_0__leaf_hi_gclk2:7 0.105224
9 clknet_2_0__leaf_hi_gclk2:8 0.160936
10 clknet_2_0__leaf_hi_gclk2:9 0.502726
11 clknet_2_0__leaf_hi_gclk2:10 0.483279
12 clknet_2_0__leaf_hi_gclk2:11 0.255281
*RES
1 clknet_2_0__leaf_hi_gclk2:0 clknet_2_0__leaf_hi_gclk2:1 0.0220516
2 h1\/ff187:CK clknet_2_0__leaf_hi_gclk2:12 1e-06
3 clknet_2_0__leaf_hi_gclk2:12 clknet_2_0__leaf_hi_gclk2:0 1e-06
4 h1\/ff186:CK clknet_2_0__leaf_hi_gclk2:14 1e-06
5 clknet_2_0__leaf_hi_gclk2:14 clknet_2_0__leaf_hi_gclk2:1 1e-06
6 clknet_2_0__leaf_hi_gclk2:1 clknet_2_0__leaf_hi_gclk2:9 0.0374913
7 h1\/ff200:CK clknet_2_0__leaf_hi_gclk2:16 1e-06
8 clknet_2_0__leaf_hi_gclk2:16 clknet_2_0__leaf_hi_gclk2:9 1e-06
9 clknet_2_0__leaf_hi_gclk2:2 clknet_2_0__leaf_hi_gclk2:3 0.0100072
10 h1\/ff162:CK clknet_2_0__leaf_hi_gclk2:18 1e-06
11 clknet_2_0__leaf_hi_gclk2:18 clknet_2_0__leaf_hi_gclk2:2 1e-06
12 h1\/ff147:CK clknet_2_0__leaf_hi_gclk2:20 1e-06
13 clknet_2_0__leaf_hi_gclk2:20 clknet_2_0__leaf_hi_gclk2:3 1e-06
14 clknet_2_0__leaf_hi_gclk2:3 clknet_2_0__leaf_hi_gclk2:10 0.011544
15 clknet_2_0__leaf_hi_gclk2:4 clknet_2_0__leaf_hi_gclk2:5 0.00187635
16 clkload0:A clknet_2_0__leaf_hi_gclk2:22 1e-06
17 clknet_2_0__leaf_hi_gclk2:22 clknet_2_0__leaf_hi_gclk2:4 1e-06
18 clkbuf_2_0__f_hi_gclk2:Z clknet_2_0__leaf_hi_gclk2:24 1e-06
19 clknet_2_0__leaf_hi_gclk2:24 clknet_2_0__leaf_hi_gclk2:5 1e-06
20 clknet_2_0__leaf_hi_gclk2:5 clknet_2_0__leaf_hi_gclk2:5 1e-06
21 clknet_2_0__leaf_hi_gclk2:6 clknet_2_0__leaf_hi_gclk2:10 0.0300216
22 h1\/ff184:CK clknet_2_0__leaf_hi_gclk2:26 1e-06
23 clknet_2_0__leaf_hi_gclk2:26 clknet_2_0__leaf_hi_gclk2:6 1e-06
24 clknet_2_0__leaf_hi_gclk2:7 clknet_2_0__leaf_hi_gclk2:8 0.00561118
25 h1\/ff167:CK clknet_2_0__leaf_hi_gclk2:28 1e-06
26 clknet_2_0__leaf_hi_gclk2:28 clknet_2_0__leaf_hi_gclk2:7 1e-06
27 h1\/ff144:CK clknet_2_0__leaf_hi_gclk2:30 1e-06
28 clknet_2_0__leaf_hi_gclk2:30 clknet_2_0__leaf_hi_gclk2:8 1e-06
29 clknet_2_0__leaf_hi_gclk2:8 clknet_2_0__leaf_hi_gclk2:11 0.00969447
30 clknet_2_0__leaf_hi_gclk2:9 clknet_2_0__leaf_hi_gclk2:11 0.0103199
31 clknet_2_0__leaf_hi_gclk2:10 clknet_2_0__leaf_hi_gclk2:7 0.00439602
32 clknet_2_0__leaf_hi_gclk2:11 clknet_2_0__leaf_hi_gclk2:5 0.00426378
*END

*D_NET clknet_2_1__leaf_hi_gclk2 4.23752
*CONN
*I h1\/ff146:CK I *D DFF_X1
*I h1\/ff148:CK I *D DFF_X1
*I h1\/ff163:CK I *D DFF_X1
*I h1\/ff164:CK I *D DFF_X1
*I h1\/ff165:CK I *D DFF_X1
*I h1\/ff166:CK I *D DFF_X1
*I h1\/ff183:CK I *D DFF_X1
*I h1\/ff199:CK I *D DFF_X1
*I h1\/ff201:CK I *D DFF_X1
*I clkbuf_2_1__f_hi_gclk2:Z O *D CLKBUF_X3
*I clkload1:A I *D INV_X2
*CAP
1 clknet_2_1__leaf_hi_gclk2:0 0.226607
2 clknet_2_1__leaf_hi_gclk2:1 0.314338
3 clknet_2_1__leaf_hi_gclk2:2 0.334067
4 clknet_2_1__leaf_hi_gclk2:3 0.0595831
5 clknet_2_1__leaf_hi_gclk2:4 0.406991
6 clknet_2_1__leaf_hi_gclk2:5 0.687338
7 clknet_2_1__leaf_hi_gclk2:6 0.226607
8 clknet_2_1__leaf_hi_gclk2:7 0.256671
9 clknet_2_1__leaf_hi_gclk2:8 0.523865
10 clknet_2_1__leaf_hi_gclk2:9 0.440813
11 clknet_2_1__leaf_hi_gclk2:10 0.0804212
12 clknet_2_1__leaf_hi_gclk2:11 0.680217
*RES
1 clknet_2_1__leaf_hi_gclk2:0 clknet_2_1__leaf_hi_gclk2:4 0.0215512
2 h1\/ff163:CK clknet_2_1__leaf_hi_gclk2:12 1e-06
3 clknet_2_1__leaf_hi_gclk2:12 clknet_2_1__leaf_hi_gclk2:0 1e-06
4 h1\/ff166:CK clknet_2_1__leaf_hi_gclk2:14 1e-06
5 clknet_2_1__leaf_hi_gclk2:14 clknet_2_1__leaf_hi_gclk2:4 1e-06
6 clknet_2_1__leaf_hi_gclk2:1 clknet_2_1__leaf_hi_gclk2:2 0.0298947
7 h1\/ff201:CK clknet_2_1__leaf_hi_gclk2:16 1e-06
8 clknet_2_1__leaf_hi_gclk2:16 clknet_2_1__leaf_hi_gclk2:1 1e-06
9 clkload1:A clknet_2_1__leaf_hi_gclk2:18 1e-06
10 clknet_2_1__leaf_hi_gclk2:18 clknet_2_1__leaf_hi_gclk2:2 1e-06
11 clknet_2_1__leaf_hi_gclk2:2 clknet_2_1__leaf_hi_gclk2:3 0.00187635
12 clkbuf_2_1__f_hi_gclk2:Z clknet_2_1__leaf_hi_gclk2:20 1e-06
13 clknet_2_1__leaf_hi_gclk2:20 clknet_2_1__leaf_hi_gclk2:3 1e-06
14 clknet_2_1__leaf_hi_gclk2:3 clknet_2_1__leaf_hi_gclk2:3 1e-06
15 clknet_2_1__leaf_hi_gclk2:4 clknet_2_1__leaf_hi_gclk2:6 0.0171552
16 h1\/ff199:CK clknet_2_1__leaf_hi_gclk2:22 1e-06
17 clknet_2_1__leaf_hi_gclk2:22 clknet_2_1__leaf_hi_gclk2:6 1e-06
18 clknet_2_1__leaf_hi_gclk2:5 clknet_2_1__leaf_hi_gclk2:11 0.0310938
19 h1\/ff183:CK clknet_2_1__leaf_hi_gclk2:24 1e-06
20 clknet_2_1__leaf_hi_gclk2:24 clknet_2_1__leaf_hi_gclk2:5 1e-06
21 clknet_2_1__leaf_hi_gclk2:6 clknet_2_1__leaf_hi_gclk2:7 0.00439602
22 h1\/ff165:CK clknet_2_1__leaf_hi_gclk2:26 1e-06
23 clknet_2_1__leaf_hi_gclk2:26 clknet_2_1__leaf_hi_gclk2:7 1e-06
24 clknet_2_1__leaf_hi_gclk2:7 clknet_2_1__leaf_hi_gclk2:8 0.0200144
25 h1\/ff148:CK clknet_2_1__leaf_hi_gclk2:28 1e-06
26 clknet_2_1__leaf_hi_gclk2:28 clknet_2_1__leaf_hi_gclk2:8 1e-06
27 clknet_2_1__leaf_hi_gclk2:8 clknet_2_1__leaf_hi_gclk2:11 0.0298072
28 clknet_2_1__leaf_hi_gclk2:9 clknet_2_1__leaf_hi_gclk2:5 0.0342747
29 h1\/ff146:CK clknet_2_1__leaf_hi_gclk2:30 1e-06
30 clknet_2_1__leaf_hi_gclk2:30 clknet_2_1__leaf_hi_gclk2:9 1e-06
31 clknet_2_1__leaf_hi_gclk2:10 clknet_2_1__leaf_hi_gclk2:9 0.00764836
32 h1\/ff164:CK clknet_2_1__leaf_hi_gclk2:32 1e-06
33 clknet_2_1__leaf_hi_gclk2:32 clknet_2_1__leaf_hi_gclk2:10 1e-06
34 clknet_2_1__leaf_hi_gclk2:11 clknet_2_1__leaf_hi_gclk2:3 0.00379023
*END

*D_NET clknet_2_2__leaf_hi_gclk2 4.03639
*CONN
*I h1\/ff145:CK I *D DFF_X1
*I h1\/ff149:CK I *D DFF_X1
*I h1\/ff150:CK I *D DFF_X1
*I h1\/ff168:CK I *D DFF_X1
*I h1\/ff169:CK I *D DFF_X1
*I h1\/ff170:CK I *D DFF_X1
*I h1\/ff180:CK I *D DFF_X1
*I h1\/ff182:CK I *D DFF_X1
*I h1\/ff185:CK I *D DFF_X1
*I h1\/ff188:CK I *D DFF_X1
*I h1\/ff203:CK I *D DFF_X1
*I h1\/ff205:CK I *D DFF_X1
*I clkbuf_2_2__f_hi_gclk2:Z O *D CLKBUF_X3
*CAP
1 clknet_2_2__leaf_hi_gclk2:0 0.167607
2 clknet_2_2__leaf_hi_gclk2:1 0.0462234
3 clknet_2_2__leaf_hi_gclk2:2 0.121383
4 clknet_2_2__leaf_hi_gclk2:3 0.547541
5 clknet_2_2__leaf_hi_gclk2:4 0.0804212
6 clknet_2_2__leaf_hi_gclk2:5 0.0214206
7 clknet_2_2__leaf_hi_gclk2:6 0.142804
8 clknet_2_2__leaf_hi_gclk2:7 0.164225
9 clknet_2_2__leaf_hi_gclk2:8 0.210448
10 clknet_2_2__leaf_hi_gclk2:9 0.242767
11 clknet_2_2__leaf_hi_gclk2:10 0.287262
12 clknet_2_2__leaf_hi_gclk2:11 0.105224
13 clknet_2_2__leaf_hi_gclk2:12 0.0272079
14 clknet_2_2__leaf_hi_gclk2:13 0.328299
15 clknet_2_2__leaf_hi_gclk2:14 0.709886
16 clknet_2_2__leaf_hi_gclk2:15 0.269975
17 clknet_2_2__leaf_hi_gclk2:16 0.226607
18 clknet_2_2__leaf_hi_gclk2:17 0.337093
*RES
1 clknet_2_2__leaf_hi_gclk2:0 clknet_2_2__leaf_hi_gclk2:14 0.011544
2 h1\/ff169:CK clknet_2_2__leaf_hi_gclk2:18 1e-06
3 clknet_2_2__leaf_hi_gclk2:18 clknet_2_2__leaf_hi_gclk2:0 1e-06
4 clknet_2_2__leaf_hi_gclk2:1 clknet_2_2__leaf_hi_gclk2:0 0.00439602
5 h1\/ff149:CK clknet_2_2__leaf_hi_gclk2:20 1e-06
6 clknet_2_2__leaf_hi_gclk2:20 clknet_2_2__leaf_hi_gclk2:1 1e-06
7 clknet_2_2__leaf_hi_gclk2:2 clknet_2_2__leaf_hi_gclk2:6 0.011544
8 h1\/ff168:CK clknet_2_2__leaf_hi_gclk2:22 1e-06
9 clknet_2_2__leaf_hi_gclk2:22 clknet_2_2__leaf_hi_gclk2:2 1e-06
10 h1\/ff185:CK clknet_2_2__leaf_hi_gclk2:24 1e-06
11 clknet_2_2__leaf_hi_gclk2:24 clknet_2_2__leaf_hi_gclk2:6 1e-06
12 clknet_2_2__leaf_hi_gclk2:3 clknet_2_2__leaf_hi_gclk2:14 0.0444248
13 h1\/ff203:CK clknet_2_2__leaf_hi_gclk2:26 1e-06
14 clknet_2_2__leaf_hi_gclk2:26 clknet_2_2__leaf_hi_gclk2:3 1e-06
15 clknet_2_2__leaf_hi_gclk2:4 clknet_2_2__leaf_hi_gclk2:3 0.00764836
16 h1\/ff180:CK clknet_2_2__leaf_hi_gclk2:28 1e-06
17 clknet_2_2__leaf_hi_gclk2:28 clknet_2_2__leaf_hi_gclk2:4 1e-06
18 clknet_2_2__leaf_hi_gclk2:5 clknet_2_2__leaf_hi_gclk2:17 0.00203718
19 h1\/ff182:CK clknet_2_2__leaf_hi_gclk2:30 1e-06
20 clknet_2_2__leaf_hi_gclk2:30 clknet_2_2__leaf_hi_gclk2:5 1e-06
21 clknet_2_2__leaf_hi_gclk2:6 clknet_2_2__leaf_hi_gclk2:16 0.00203718
22 clknet_2_2__leaf_hi_gclk2:7 clknet_2_2__leaf_hi_gclk2:17 0.0156184
23 h1\/ff150:CK clknet_2_2__leaf_hi_gclk2:32 1e-06
24 clknet_2_2__leaf_hi_gclk2:32 clknet_2_2__leaf_hi_gclk2:7 1e-06
25 clknet_2_2__leaf_hi_gclk2:8 clknet_2_2__leaf_hi_gclk2:16 0.00561118
26 h1\/ff205:CK clknet_2_2__leaf_hi_gclk2:34 1e-06
27 clknet_2_2__leaf_hi_gclk2:34 clknet_2_2__leaf_hi_gclk2:8 1e-06
28 clknet_2_2__leaf_hi_gclk2:9 clknet_2_2__leaf_hi_gclk2:13 0.011544
29 h1\/ff145:CK clknet_2_2__leaf_hi_gclk2:36 1e-06
30 clknet_2_2__leaf_hi_gclk2:36 clknet_2_2__leaf_hi_gclk2:9 1e-06
31 clknet_2_2__leaf_hi_gclk2:10 clknet_2_2__leaf_hi_gclk2:15 0.0134168
32 h1\/ff188:CK clknet_2_2__leaf_hi_gclk2:38 1e-06
33 clknet_2_2__leaf_hi_gclk2:38 clknet_2_2__leaf_hi_gclk2:10 1e-06
34 clknet_2_2__leaf_hi_gclk2:11 clknet_2_2__leaf_hi_gclk2:13 0.0100072
35 h1\/ff170:CK clknet_2_2__leaf_hi_gclk2:40 1e-06
36 clknet_2_2__leaf_hi_gclk2:40 clknet_2_2__leaf_hi_gclk2:11 1e-06
37 clknet_2_2__leaf_hi_gclk2:12 clknet_2_2__leaf_hi_gclk2:12 1e-06
38 clkbuf_2_2__f_hi_gclk2:Z clknet_2_2__leaf_hi_gclk2:42 1e-06
39 clknet_2_2__leaf_hi_gclk2:42 clknet_2_2__leaf_hi_gclk2:12 1e-06
40 clknet_2_2__leaf_hi_gclk2:13 clknet_2_2__leaf_hi_gclk2:15 0.00967124
41 clknet_2_2__leaf_hi_gclk2:14 clknet_2_2__leaf_hi_gclk2:9 0.011544
42 clknet_2_2__leaf_hi_gclk2:15 clknet_2_2__leaf_hi_gclk2:12 0.00258758
43 clknet_2_2__leaf_hi_gclk2:16 clknet_2_2__leaf_hi_gclk2:10 0.0139029
44 clknet_2_2__leaf_hi_gclk2:17 clknet_2_2__leaf_hi_gclk2:8 0.0144032
*END

*D_NET clknet_2_3__leaf_hi_gclk2 2.96172
*CONN
*I h1\/ff151:CK I *D DFF_X1
*I h1\/ff152:CK I *D DFF_X1
*I h1\/ff181:CK I *D DFF_X1
*I h1\/ff198:CK I *D DFF_X1
*I h1\/ff202:CK I *D DFF_X1
*I h1\/ff204:CK I *D DFF_X1
*I h1\/ff206:CK I *D DFF_X1
*I clkbuf_2_3__f_hi_gclk2:Z O *D CLKBUF_X3
*I clkload2:A I *D INV_X2
*CAP
1 clknet_2_3__leaf_hi_gclk2:0 0.0197295
2 clknet_2_3__leaf_hi_gclk2:1 0.153533
3 clknet_2_3__leaf_hi_gclk2:2 0.383692
4 clknet_2_3__leaf_hi_gclk2:3 0.226607
5 clknet_2_3__leaf_hi_gclk2:4 0.105224
6 clknet_2_3__leaf_hi_gclk2:5 0.552802
7 clknet_2_3__leaf_hi_gclk2:6 0.353252
8 clknet_2_3__leaf_hi_gclk2:7 0.390832
9 clknet_2_3__leaf_hi_gclk2:8 0.121383
10 clknet_2_3__leaf_hi_gclk2:9 0.654662
*RES
1 clknet_2_3__leaf_hi_gclk2:0 clknet_2_3__leaf_hi_gclk2:1 0.00187635
2 clkload2:A clknet_2_3__leaf_hi_gclk2:10 1e-06
3 clknet_2_3__leaf_hi_gclk2:10 clknet_2_3__leaf_hi_gclk2:0 1e-06
4 clkbuf_2_3__f_hi_gclk2:Z clknet_2_3__leaf_hi_gclk2:12 1e-06
5 clknet_2_3__leaf_hi_gclk2:12 clknet_2_3__leaf_hi_gclk2:1 1e-06
6 clknet_2_3__leaf_hi_gclk2:1 clknet_2_3__leaf_hi_gclk2:1 1e-06
7 clknet_2_3__leaf_hi_gclk2:2 clknet_2_3__leaf_hi_gclk2:9 0.0185133
8 h1\/ff151:CK clknet_2_3__leaf_hi_gclk2:14 1e-06
9 clknet_2_3__leaf_hi_gclk2:14 clknet_2_3__leaf_hi_gclk2:2 1e-06
10 clknet_2_3__leaf_hi_gclk2:3 clknet_2_3__leaf_hi_gclk2:7 0.0215512
11 h1\/ff204:CK clknet_2_3__leaf_hi_gclk2:16 1e-06
12 clknet_2_3__leaf_hi_gclk2:16 clknet_2_3__leaf_hi_gclk2:3 1e-06
13 h1\/ff181:CK clknet_2_3__leaf_hi_gclk2:18 1e-06
14 clknet_2_3__leaf_hi_gclk2:18 clknet_2_3__leaf_hi_gclk2:7 1e-06
15 clknet_2_3__leaf_hi_gclk2:4 clknet_2_3__leaf_hi_gclk2:5 0.0100072
16 h1\/ff198:CK clknet_2_3__leaf_hi_gclk2:20 1e-06
17 clknet_2_3__leaf_hi_gclk2:20 clknet_2_3__leaf_hi_gclk2:4 1e-06
18 h1\/ff206:CK clknet_2_3__leaf_hi_gclk2:22 1e-06
19 clknet_2_3__leaf_hi_gclk2:22 clknet_2_3__leaf_hi_gclk2:5 1e-06
20 clknet_2_3__leaf_hi_gclk2:5 clknet_2_3__leaf_hi_gclk2:9 0.0310223
21 clknet_2_3__leaf_hi_gclk2:6 clknet_2_3__leaf_hi_gclk2:2 0.0179772
22 h1\/ff202:CK clknet_2_3__leaf_hi_gclk2:24 1e-06
23 clknet_2_3__leaf_hi_gclk2:24 clknet_2_3__leaf_hi_gclk2:6 1e-06
24 clknet_2_3__leaf_hi_gclk2:7 clknet_2_3__leaf_hi_gclk2:6 0.0156184
25 clknet_2_3__leaf_hi_gclk2:8 clknet_2_3__leaf_hi_gclk2:5 0.011544
26 h1\/ff152:CK clknet_2_3__leaf_hi_gclk2:26 1e-06
27 clknet_2_3__leaf_hi_gclk2:26 clknet_2_3__leaf_hi_gclk2:8 1e-06
28 clknet_2_3__leaf_hi_gclk2:9 clknet_2_3__leaf_hi_gclk2:1 0.0127252
*END

*D_NET clknet_0_hi_gclk5 10.4365
*CONN
*I clkbuf_0_hi_gclk5:Z O *D CLKBUF_X3
*I clkbuf_4_0__f_hi_gclk5:A I *D CLKBUF_X3
*I clkbuf_4_1__f_hi_gclk5:A I *D CLKBUF_X3
*I clkbuf_4_2__f_hi_gclk5:A I *D CLKBUF_X3
*I clkbuf_4_3__f_hi_gclk5:A I *D CLKBUF_X3
*I clkbuf_4_4__f_hi_gclk5:A I *D CLKBUF_X3
*I clkbuf_4_5__f_hi_gclk5:A I *D CLKBUF_X3
*I clkbuf_4_6__f_hi_gclk5:A I *D CLKBUF_X3
*I clkbuf_4_7__f_hi_gclk5:A I *D CLKBUF_X3
*I clkbuf_4_8__f_hi_gclk5:A I *D CLKBUF_X3
*I clkbuf_4_9__f_hi_gclk5:A I *D CLKBUF_X3
*I clkbuf_4_10__f_hi_gclk5:A I *D CLKBUF_X3
*I clkbuf_4_11__f_hi_gclk5:A I *D CLKBUF_X3
*I clkbuf_4_12__f_hi_gclk5:A I *D CLKBUF_X3
*I clkbuf_4_13__f_hi_gclk5:A I *D CLKBUF_X3
*I clkbuf_4_14__f_hi_gclk5:A I *D CLKBUF_X3
*I clkbuf_4_15__f_hi_gclk5:A I *D CLKBUF_X3
*CAP
1 clknet_0_hi_gclk5:0 0.0608653
2 clknet_0_hi_gclk5:1 0.712595
3 clknet_0_hi_gclk5:2 0.168456
4 clknet_0_hi_gclk5:3 0.309818
5 clknet_0_hi_gclk5:4 0.808856
6 clknet_0_hi_gclk5:5 0.224377
7 clknet_0_hi_gclk5:6 0.519873
8 clknet_0_hi_gclk5:7 0.39099
9 clknet_0_hi_gclk5:8 0.565814
10 clknet_0_hi_gclk5:9 0.511608
11 clknet_0_hi_gclk5:10 0.483419
12 clknet_0_hi_gclk5:11 0.371176
13 clknet_0_hi_gclk5:12 0.105274
14 clknet_0_hi_gclk5:13 0.112681
15 clknet_0_hi_gclk5:14 0.176082
16 clknet_0_hi_gclk5:15 0.409892
17 clknet_0_hi_gclk5:16 0.353296
18 clknet_0_hi_gclk5:17 0.876581
19 clknet_0_hi_gclk5:18 0.856712
20 clknet_0_hi_gclk5:19 0.679061
21 clknet_0_hi_gclk5:20 0.634598
22 clknet_0_hi_gclk5:21 0.274569
23 clknet_0_hi_gclk5:22 0.398872
24 clknet_0_hi_gclk5:23 0.431075
*RES
1 clknet_0_hi_gclk5:0 clknet_0_hi_gclk5:23 0.00250534
2 clkbuf_4_10__f_hi_gclk5:A clknet_0_hi_gclk5:24 1e-06
3 clknet_0_hi_gclk5:24 clknet_0_hi_gclk5:25 1e-06
4 clknet_0_hi_gclk5:25 clknet_0_hi_gclk5:26 1e-06
5 clknet_0_hi_gclk5:26 clknet_0_hi_gclk5:27 1e-06
6 clknet_0_hi_gclk5:27 clknet_0_hi_gclk5:0 1e-06
7 clknet_0_hi_gclk5:1 clknet_0_hi_gclk5:4 0.0210272
8 clkbuf_4_8__f_hi_gclk5:A clknet_0_hi_gclk5:29 1e-06
9 clknet_0_hi_gclk5:29 clknet_0_hi_gclk5:30 1e-06
10 clknet_0_hi_gclk5:30 clknet_0_hi_gclk5:31 1e-06
11 clknet_0_hi_gclk5:31 clknet_0_hi_gclk5:32 1e-06
12 clknet_0_hi_gclk5:32 clknet_0_hi_gclk5:1 1e-06
13 clkbuf_4_9__f_hi_gclk5:A clknet_0_hi_gclk5:34 1e-06
14 clknet_0_hi_gclk5:34 clknet_0_hi_gclk5:35 1e-06
15 clknet_0_hi_gclk5:35 clknet_0_hi_gclk5:36 1e-06
16 clknet_0_hi_gclk5:36 clknet_0_hi_gclk5:37 1e-06
17 clknet_0_hi_gclk5:37 clknet_0_hi_gclk5:4 1e-06
18 clknet_0_hi_gclk5:2 clknet_0_hi_gclk5:23 0.00693398
19 clkbuf_4_11__f_hi_gclk5:A clknet_0_hi_gclk5:39 1e-06
20 clknet_0_hi_gclk5:39 clknet_0_hi_gclk5:40 1e-06
21 clknet_0_hi_gclk5:40 clknet_0_hi_gclk5:41 1e-06
22 clknet_0_hi_gclk5:41 clknet_0_hi_gclk5:42 1e-06
23 clknet_0_hi_gclk5:42 clknet_0_hi_gclk5:2 1e-06
24 clknet_0_hi_gclk5:3 clknet_0_hi_gclk5:19 0.0127527
25 clkbuf_4_2__f_hi_gclk5:A clknet_0_hi_gclk5:44 1e-06
26 clknet_0_hi_gclk5:44 clknet_0_hi_gclk5:45 1e-06
27 clknet_0_hi_gclk5:45 clknet_0_hi_gclk5:46 1e-06
28 clknet_0_hi_gclk5:46 clknet_0_hi_gclk5:47 1e-06
29 clknet_0_hi_gclk5:47 clknet_0_hi_gclk5:3 1e-06
30 clknet_0_hi_gclk5:4 clknet_0_hi_gclk5:17 0.0122668
31 clknet_0_hi_gclk5:5 clknet_0_hi_gclk5:22 0.0092358
32 clkbuf_4_0__f_hi_gclk5:A clknet_0_hi_gclk5:49 1e-06
33 clknet_0_hi_gclk5:49 clknet_0_hi_gclk5:50 1e-06
34 clknet_0_hi_gclk5:50 clknet_0_hi_gclk5:51 1e-06
35 clknet_0_hi_gclk5:51 clknet_0_hi_gclk5:52 1e-06
36 clknet_0_hi_gclk5:52 clknet_0_hi_gclk5:5 1e-06
37 clknet_0_hi_gclk5:6 clknet_0_hi_gclk5:6 1e-06
38 clkbuf_0_hi_gclk5:Z clknet_0_hi_gclk5:54 1e-06
39 clknet_0_hi_gclk5:54 clknet_0_hi_gclk5:55 1e-06
40 clknet_0_hi_gclk5:55 clknet_0_hi_gclk5:56 1e-06
41 clknet_0_hi_gclk5:56 clknet_0_hi_gclk5:57 1e-06
42 clknet_0_hi_gclk5:57 clknet_0_hi_gclk5:6 1e-06
43 clknet_0_hi_gclk5:7 clknet_0_hi_gclk5:21 0.00523297
44 clkbuf_4_3__f_hi_gclk5:A clknet_0_hi_gclk5:59 1e-06
45 clknet_0_hi_gclk5:59 clknet_0_hi_gclk5:60 1e-06
46 clknet_0_hi_gclk5:60 clknet_0_hi_gclk5:61 1e-06
47 clknet_0_hi_gclk5:61 clknet_0_hi_gclk5:62 1e-06
48 clknet_0_hi_gclk5:62 clknet_0_hi_gclk5:7 1e-06
49 clknet_0_hi_gclk5:8 clknet_0_hi_gclk5:7 0.010861
50 clkbuf_4_1__f_hi_gclk5:A clknet_0_hi_gclk5:64 1e-06
51 clknet_0_hi_gclk5:64 clknet_0_hi_gclk5:65 1e-06
52 clknet_0_hi_gclk5:65 clknet_0_hi_gclk5:66 1e-06
53 clknet_0_hi_gclk5:66 clknet_0_hi_gclk5:67 1e-06
54 clknet_0_hi_gclk5:67 clknet_0_hi_gclk5:8 1e-06
55 clknet_0_hi_gclk5:9 clknet_0_hi_gclk5:17 0.0145724
56 clkbuf_4_12__f_hi_gclk5:A clknet_0_hi_gclk5:69 1e-06
57 clknet_0_hi_gclk5:69 clknet_0_hi_gclk5:70 1e-06
58 clknet_0_hi_gclk5:70 clknet_0_hi_gclk5:71 1e-06
59 clknet_0_hi_gclk5:71 clknet_0_hi_gclk5:72 1e-06
60 clknet_0_hi_gclk5:72 clknet_0_hi_gclk5:9 1e-06
61 clknet_0_hi_gclk5:10 clknet_0_hi_gclk5:21 0.00302653
62 clkbuf_4_6__f_hi_gclk5:A clknet_0_hi_gclk5:74 1e-06
63 clknet_0_hi_gclk5:74 clknet_0_hi_gclk5:75 1e-06
64 clknet_0_hi_gclk5:75 clknet_0_hi_gclk5:76 1e-06
65 clknet_0_hi_gclk5:76 clknet_0_hi_gclk5:77 1e-06
66 clknet_0_hi_gclk5:77 clknet_0_hi_gclk5:10 1e-06
67 clknet_0_hi_gclk5:11 clknet_0_hi_gclk5:8 0.0124291
68 clkbuf_4_4__f_hi_gclk5:A clknet_0_hi_gclk5:79 1e-06
69 clknet_0_hi_gclk5:79 clknet_0_hi_gclk5:80 1e-06
70 clknet_0_hi_gclk5:80 clknet_0_hi_gclk5:81 1e-06
71 clknet_0_hi_gclk5:81 clknet_0_hi_gclk5:82 1e-06
72 clknet_0_hi_gclk5:82 clknet_0_hi_gclk5:11 1e-06
73 clknet_0_hi_gclk5:12 clknet_0_hi_gclk5:22 0.00433327
74 clkbuf_4_5__f_hi_gclk5:A clknet_0_hi_gclk5:84 1e-06
75 clknet_0_hi_gclk5:84 clknet_0_hi_gclk5:85 1e-06
76 clknet_0_hi_gclk5:85 clknet_0_hi_gclk5:86 1e-06
77 clknet_0_hi_gclk5:86 clknet_0_hi_gclk5:87 1e-06
78 clknet_0_hi_gclk5:87 clknet_0_hi_gclk5:12 1e-06
79 clknet_0_hi_gclk5:13 clknet_0_hi_gclk5:20 0.00463818
80 clkbuf_4_14__f_hi_gclk5:A clknet_0_hi_gclk5:89 1e-06
81 clknet_0_hi_gclk5:89 clknet_0_hi_gclk5:90 1e-06
82 clknet_0_hi_gclk5:90 clknet_0_hi_gclk5:91 1e-06
83 clknet_0_hi_gclk5:91 clknet_0_hi_gclk5:92 1e-06
84 clknet_0_hi_gclk5:92 clknet_0_hi_gclk5:13 1e-06
85 clknet_0_hi_gclk5:14 clknet_0_hi_gclk5:20 0.0072479
86 clkbuf_4_15__f_hi_gclk5:A clknet_0_hi_gclk5:94 1e-06
87 clknet_0_hi_gclk5:94 clknet_0_hi_gclk5:95 1e-06
88 clknet_0_hi_gclk5:95 clknet_0_hi_gclk5:96 1e-06
89 clknet_0_hi_gclk5:96 clknet_0_hi_gclk5:97 1e-06
90 clknet_0_hi_gclk5:97 clknet_0_hi_gclk5:14 1e-06
91 clknet_0_hi_gclk5:15 clknet_0_hi_gclk5:10 0.016872
92 clkbuf_4_7__f_hi_gclk5:A clknet_0_hi_gclk5:99 1e-06
93 clknet_0_hi_gclk5:99 clknet_0_hi_gclk5:100 1e-06
94 clknet_0_hi_gclk5:100 clknet_0_hi_gclk5:101 1e-06
95 clknet_0_hi_gclk5:101 clknet_0_hi_gclk5:102 1e-06
96 clknet_0_hi_gclk5:102 clknet_0_hi_gclk5:15 1e-06
97 clknet_0_hi_gclk5:16 clknet_0_hi_gclk5:18 0.0145424
98 clkbuf_4_13__f_hi_gclk5:A clknet_0_hi_gclk5:104 1e-06
99 clknet_0_hi_gclk5:104 clknet_0_hi_gclk5:105 1e-06
100 clknet_0_hi_gclk5:105 clknet_0_hi_gclk5:106 1e-06
101 clknet_0_hi_gclk5:106 clknet_0_hi_gclk5:107 1e-06
102 clknet_0_hi_gclk5:107 clknet_0_hi_gclk5:16 1e-06
103 clknet_0_hi_gclk5:17 clknet_0_hi_gclk5:6 0.00924256
104 clknet_0_hi_gclk5:18 clknet_0_hi_gclk5:9 0.00648639
105 clknet_0_hi_gclk5:19 clknet_0_hi_gclk5:6 0.0121564
106 clknet_0_hi_gclk5:20 clknet_0_hi_gclk5:18 0.0142352
107 clknet_0_hi_gclk5:21 clknet_0_hi_gclk5:19 0.0030423
108 clknet_0_hi_gclk5:22 clknet_0_hi_gclk5:11 0.00284929
109 clknet_0_hi_gclk5:23 clknet_0_hi_gclk5:1 0.00830456
*END

*D_NET clknet_4_0__leaf_hi_gclk5 1.41943
*CONN
*I ff0\/name:CK I *D DFF_X1
*I h1\/ff111:CK I *D DFF_X1
*I h1\/ff130:CK I *D DFF_X1
*I h1\/ff16:CK I *D DFF_X1
*I h1\/ff20:CK I *D DFF_X1
*I h1\/ff39:CK I *D DFF_X1
*I clkbuf_4_0__f_hi_gclk5:Z O *D CLKBUF_X3
*I clkload3:A I *D INV_X4
*CAP
1 clknet_4_0__leaf_hi_gclk5:0 0.130966
2 clknet_4_0__leaf_hi_gclk5:1 0.226607
3 clknet_4_0__leaf_hi_gclk5:2 0.150978
4 clknet_4_0__leaf_hi_gclk5:3 0.0364714
5 clknet_4_0__leaf_hi_gclk5:4 0.210448
6 clknet_4_0__leaf_hi_gclk5:5 0.256502
7 clknet_4_0__leaf_hi_gclk5:6 0.0591697
8 clknet_4_0__leaf_hi_gclk5:7 0.272831
9 clknet_4_0__leaf_hi_gclk5:8 0.0754606
*RES
1 clknet_4_0__leaf_hi_gclk5:0 clknet_4_0__leaf_hi_gclk5:2 0.0124554