*SPEF "ieee 1481-1999"
*DESIGN "multi_sink"
*DATE "11:11:11 Fri 11 11, 1111"
*VENDOR "The OpenROAD Project"
*PROGRAM "OpenROAD"
*VERSION "1.0"
*DESIGN_FLOW "NAME_SCOPE LOCAL" "PIN_CAP NONE"
*DIVIDER /
*DELIMITER :
*BUS_DELIMITER []
*T_UNIT 1 NS
*C_UNIT 1 FF
*R_UNIT 1 KOHM
*L_UNIT 1 HENRY

*PORTS
clk I

*D_NET clk 2.00841
*CONN
*P clk I
*I clkbuf_0_clk:A I *D CLKBUF_X3
*CAP
1 clk:0 1.0042
2 clk:1 1.0042
*RES
1 clk:0 clk:0 1e-06
2 clk clk:2 1e-06
3 clk:2 clk:3 1e-06
4 clk:3 clk:4 1e-06
5 clk:4 clk:0 1e-06
6 clk:1 clk:0 0.041335
7 clkbuf_0_clk:A clk:6 1e-06
8 clk:6 clk:7 1e-06
9 clk:7 clk:8 1e-06
10 clk:8 clk:9 1e-06
11 clk:9 clk:1 1e-06
*END

*D_NET gclk1 0.16457
*CONN
*I gclk1:GCK O *D CLKGATE_X1
*I clkbuf_0_gclk1:A I *D CLKBUF_X3
*CAP
1 gclk1:0 0.0822849
2 gclk1:1 0.0822849
*RES
1 gclk1:0 gclk1:1 0.00338701
2 clkbuf_0_gclk1:A gclk1:2 1e-06
3 gclk1:2 gclk1:3 1e-06
4 gclk1:3 gclk1:4 1e-06
5 gclk1:4 gclk1:5 1e-06
6 gclk1:5 gclk1:0 1e-06
7 gclk1:GCK gclk1:7 1e-06
8 gclk1:7 gclk1:8 1e-06
9 gclk1:8 gclk1:9 1e-06
10 gclk1:9 gclk1:10 1e-06
11 gclk1:10 gclk1:1 1e-06
12 gclk1:1 gclk1:1 1e-06
*END

*D_NET gclk3 0.16457
*CONN
*I gclk3:GCK O *D CLKGATE_X1
*I clkbuf_0_gclk3:A I *D CLKBUF_X3
*CAP
1 gclk3:0 0.0822849
2 gclk3:1 0.0822849
*RES
1 gclk3:0 gclk3:1 0.00338701
2 clkbuf_0_gclk3:A gclk3:2 1e-06
3 gclk3:2 gclk3:3 1e-06
4 gclk3:3 gclk3:4 1e-06
5 gclk3:4 gclk3:5 1e-06
6 gclk3:5 gclk3:0 1e-06
7 gclk3:GCK gclk3:7 1e-06
8 gclk3:7 gclk3:8 1e-06
9 gclk3:8 gclk3:9 1e-06
10 gclk3:9 gclk3:10 1e-06
11 gclk3:10 gclk3:1 1e-06
12 gclk3:1 gclk3:1 1e-06
*END

*D_NET gclk4 0.487616
*CONN
*I gclk4:GCK O *D CLKGATE_X1
*I clkbuf_0_gclk4:A I *D CLKBUF_X3
*I delaybuf_1_core:A I *D CLKBUF_X3
*CAP
1 gclk4:0 0.0382598
2 gclk4:1 0.0239192
3 gclk4:2 0.181629
4 gclk4:3 0.243808
*RES
1 gclk4:0 gclk4:3 0.00157485
2 delaybuf_1_core:A gclk4:4 1e-06
3 gclk4:4 gclk4:5 1e-06
4 gclk4:5 gclk4:6 1e-06
5 gclk4:6 gclk4:7 1e-06
6 gclk4:7 gclk4:0 1e-06
7 gclk4:1 gclk4:1 1e-06
8 gclk4:GCK gclk4:9 1e-06
9 gclk4:9 gclk4:10 1e-06
10 gclk4:10 gclk4:11 1e-06
11 gclk4:11 gclk4:12 1e-06
12 gclk4:12 gclk4:1 1e-06
13 gclk4:2 gclk4:3 0.00747621
14 clkbuf_0_gclk4:A gclk4:14 1e-06
15 gclk4:14 gclk4:15 1e-06
16 gclk4:15 gclk4:16 1e-06
17 gclk4:16 gclk4:17 1e-06
18 gclk4:17 gclk4:2 1e-06
19 gclk4:3 gclk4:1 0.000984561
*END

*D_NET h1/gclk2 0.174422
*CONN
*I h1/gclk2:GCK O *D CLKGATE_X1
*I h1/clkbuf_0_h1\/gclk2:A I *D CLKBUF_X3
*CAP
1 h1/gclk2:0 0.0872111
2 h1/gclk2:1 0.0872111
*RES
1 h1/gclk2:0 h1/gclk2:1 0.00358978
2 h1/clkbuf_0_h1\/gclk2:A h1/gclk2:2 1e-06
3 h1/gclk2:2 h1/gclk2:3 1e-06
4 h1/gclk2:3 h1/gclk2:4 1e-06
5 h1/gclk2:4 h1/gclk2:5 1e-06
6 h1/gclk2:5 h1/gclk2:0 1e-06
7 h1/gclk2:GCK h1/gclk2:7 1e-06
8 h1/gclk2:7 h1/gclk2:8 1e-06
9 h1/gclk2:8 h1/gclk2:9 1e-06
10 h1/gclk2:9 h1/gclk2:10 1e-06
11 h1/gclk2:10 h1/gclk2:1 1e-06
12 h1/gclk2:1 h1/gclk2:1 1e-06
*END

*D_NET h1/gclk5 0.42
*CONN
*I h1/gclk5:GCK O *D CLKGATE_X1
*I h1/clkbuf_0_h1\/gclk5:A I *D CLKBUF_X3
*CAP
1 h1/gclk5:0 0.21
2 h1/gclk5:1 0.21
*RES
1 h1/gclk5:0 h1/gclk5:1 0.00864401
2 h1/clkbuf_0_h1\/gclk5:A h1/gclk5:2 1e-06
3 h1/gclk5:2 h1/gclk5:3 1e-06
4 h1/gclk5:3 h1/gclk5:4 1e-06
5 h1/gclk5:4 h1/gclk5:5 1e-06
6 h1/gclk5:5 h1/gclk5:0 1e-06
7 h1/gclk5:GCK h1/gclk5:7 1e-06
8 h1/gclk5:7 h1/gclk5:8 1e-06
9 h1/gclk5:8 h1/gclk5:9 1e-06
10 h1/gclk5:9 h1/gclk5:10 1e-06
11 h1/gclk5:10 h1/gclk5:1 1e-06
12 h1/gclk5:1 h1/gclk5:1 1e-06
*END

*D_NET gclk4_regs 0.038132
*CONN
*I clkbuf_regs_0_core:Z O *D CLKBUF_X3
*I clkbuf_0_gclk4_regs:A I *D CLKBUF_X3
*CAP
1 gclk4_regs:0 0.019066
2 gclk4_regs:1 0.019066
*RES
1 gclk4_regs:0 gclk4_regs:1 0.000784795
2 clkbuf_0_gclk4_regs:A gclk4_regs:2 1e-06
3 gclk4_regs:2 gclk4_regs:3 1e-06
4 gclk4_regs:3 gclk4_regs:4 1e-06
5 gclk4_regs:4 gclk4_regs:5 1e-06
6 gclk4_regs:5 gclk4_regs:0 1e-06
7 clkbuf_regs_0_core:Z gclk4_regs:7 1e-06
8 gclk4_regs:7 gclk4_regs:8 1e-06
9 gclk4_regs:8 gclk4_regs:9 1e-06
10 gclk4_regs:9 gclk4_regs:10 1e-06
11 gclk4_regs:10 gclk4_regs:1 1e-06
12 gclk4_regs:1 gclk4_regs:1 1e-06
*END

*D_NET clknet_0_clk 0.763772
*CONN
*I clkbuf_0_clk:Z O *D CLKBUF_X3
*I clkbuf_1_0__f_clk:A I *D CLKBUF_X3
*I delaybuf_6_core:A I *D CLKBUF_X3
*CAP
1 clknet_0_clk:0 0.260064
2 clknet_0_clk:1 0.10739
3 clknet_0_clk:2 0.0144318
4 clknet_0_clk:3 0.381886
*RES
1 clknet_0_clk:0 clknet_0_clk:3 0.0107048
2 clkbuf_1_0__f_clk:A clknet_0_clk:4 1e-06
3 clknet_0_clk:4 clknet_0_clk:5 1e-06
4 clknet_0_clk:5 clknet_0_clk:6 1e-06
5 clknet_0_clk:6 clknet_0_clk:7 1e-06
6 clknet_0_clk:7 clknet_0_clk:0 1e-06
7 clknet_0_clk:1 clknet_0_clk:3 0.00442039
8 delaybuf_6_core:A clknet_0_clk:9 1e-06
9 clknet_0_clk:9 clknet_0_clk:10 1e-06
10 clknet_0_clk:10 clknet_0_clk:11 1e-06
11 clknet_0_clk:11 clknet_0_clk:12 1e-06
12 clknet_0_clk:12 clknet_0_clk:1 1e-06
13 clknet_0_clk:2 clknet_0_clk:2 1e-06
14 clkbuf_0_clk:Z clknet_0_clk:14 1e-06
15 clknet_0_clk:14 clknet_0_clk:15 1e-06
16 clknet_0_clk:15 clknet_0_clk:16 1e-06
17 clknet_0_clk:16 clknet_0_clk:17 1e-06
18 clknet_0_clk:17 clknet_0_clk:2 1e-06
19 clknet_0_clk:3 clknet_0_clk:2 0.000594041
*END

*D_NET clknet_1_0__leaf_clk 0.357237
*CONN
*I gclk4:CK I *D CLKGATE_X1
*I clkbuf_1_0__f_clk:Z O *D CLKBUF_X3
*I delaybuf_3_core:A I *D CLKBUF_X3
*CAP
1 clknet_1_0__leaf_clk:0 0.0930677
2 clknet_1_0__leaf_clk:1 0.178619
3 clknet_1_0__leaf_clk:2 0.0855508
*RES
1 clknet_1_0__leaf_clk:0 clknet_1_0__leaf_clk:1 0.00383085
2 gclk4:CK clknet_1_0__leaf_clk:3 1e-06
3 clknet_1_0__leaf_clk:3 clknet_1_0__leaf_clk:4 1e-06
4 clknet_1_0__leaf_clk:4 clknet_1_0__leaf_clk:5 1e-06
5 clknet_1_0__leaf_clk:5 clknet_1_0__leaf_clk:6 1e-06
6 clknet_1_0__leaf_clk:6 clknet_1_0__leaf_clk:0 1e-06
7 delaybuf_3_core:A clknet_1_0__leaf_clk:8 1e-06
8 clknet_1_0__leaf_clk:8 clknet_1_0__leaf_clk:9 1e-06
9 clknet_1_0__leaf_clk:9 clknet_1_0__leaf_clk:10 1e-06
10 clknet_1_0__leaf_clk:10 clknet_1_0__leaf_clk:11 1e-06
11 clknet_1_0__leaf_clk:11 clknet_1_0__leaf_clk:1 1e-06
12 clknet_1_0__leaf_clk:1 clknet_1_0__leaf_clk:2 0.00352144
13 clkbuf_1_0__f_clk:Z clknet_1_0__leaf_clk:13 1e-06
14 clknet_1_0__leaf_clk:13 clknet_1_0__leaf_clk:14 1e-06
15 clknet_1_0__leaf_clk:14 clknet_1_0__leaf_clk:15 1e-06
16 clknet_1_0__leaf_clk:15 clknet_1_0__leaf_clk:16 1e-06
17 clknet_1_0__leaf_clk:16 clknet_1_0__leaf_clk:2 1e-06
18 clknet_1_0__leaf_clk:2 clknet_1_0__leaf_clk:2 1e-06
*END

*D_NET clknet_1_1__leaf_clk_1 0.488054
*CONN
*I h1/gclk5:CK I *D CLKGATE_X1
*I clkbuf_1_1__f_clk:Z O *D CLKBUF_X3
*I h1/delaybuf_0_core:A I *D CLKBUF_X3
*CAP
1 clknet_1_1__leaf_clk_1:0 0.0236273
2 clknet_1_1__leaf_clk_1:1 0.0655543
3 clknet_1_1__leaf_clk_1:2 0.154845
4 clknet_1_1__leaf_clk_1:3 0.244027
*RES
1 clknet_1_1__leaf_clk_1:0 clknet_1_1__leaf_clk_1:3 0.000972545
2 h1/delaybuf_0_core:A clknet_1_1__leaf_clk_1:4 1e-06
3 clknet_1_1__leaf_clk_1:4 clknet_1_1__leaf_clk_1:5 1e-06
4 clknet_1_1__leaf_clk_1:5 clknet_1_1__leaf_clk_1:6 1e-06
5 clknet_1_1__leaf_clk_1:6 clknet_1_1__leaf_clk_1:7 1e-06
6 clknet_1_1__leaf_clk_1:7 clknet_1_1__leaf_clk_1:0 1e-06
7 clknet_1_1__leaf_clk_1:1 clknet_1_1__leaf_clk_1:1 1e-06
8 clkbuf_1_1__f_clk:Z clknet_1_1__leaf_clk_1:9 1e-06
9 clknet_1_1__leaf_clk_1:9 clknet_1_1__leaf_clk_1:10 1e-06
10 clknet_1_1__leaf_clk_1:10 clknet_1_1__leaf_clk_1:11 1e-06
11 clknet_1_1__leaf_clk_1:11 clknet_1_1__leaf_clk_1:12 1e-06
12 clknet_1_1__leaf_clk_1:12 clknet_1_1__leaf_clk_1:1 1e-06
13 clknet_1_1__leaf_clk_1:2 clknet_1_1__leaf_clk_1:3 0.00637374
14 h1/gclk5:CK clknet_1_1__leaf_clk_1:14 1e-06
15 clknet_1_1__leaf_clk_1:14 clknet_1_1__leaf_clk_1:15 1e-06
16 clknet_1_1__leaf_clk_1:15 clknet_1_1__leaf_clk_1:16 1e-06
17 clknet_1_1__leaf_clk_1:16 clknet_1_1__leaf_clk_1:17 1e-06
18 clknet_1_1__leaf_clk_1:17 clknet_1_1__leaf_clk_1:2 1e-06
19 clknet_1_1__leaf_clk_1:3 clknet_1_1__leaf_clk_1:1 0.00269834
*END

*D_NET clknet_0_h1\/gclk5 8.77781
*CONN
*I h1/clkbuf_0_h1\/gclk5:Z O *D CLKBUF_X3
*I h1/clkbuf_4_0__f_h1\/gclk5:A I *D CLKBUF_X3
*I h1/clkbuf_4_1__f_h1\/gclk5:A I *D CLKBUF_X3
*I h1/clkbuf_4_2__f_h1\/gclk5:A I *D CLKBUF_X3
*I h1/clkbuf_4_3__f_h1\/gclk5:A I *D CLKBUF_X3
*I h1/clkbuf_4_4__f_h1\/gclk5:A I *D CLKBUF_X3
*I h1/clkbuf_4_5__f_h1\/gclk5:A I *D CLKBUF_X3
*I h1/clkbuf_4_6__f_h1\/gclk5:A I *D CLKBUF_X3
*I h1/clkbuf_4_7__f_h1\/gclk5:A I *D CLKBUF_X3
*I h1/clkbuf_4_8__f_h1\/gclk5:A I *D CLKBUF_X3
*I h1/clkbuf_4_9__f_h1\/gclk5:A I *D CLKBUF_X3
*I h1/clkbuf_4_10__f_h1\/gclk5:A I *D CLKBUF_X3
*I h1/clkbuf_4_11__f_h1\/gclk5:A I *D CLKBUF_X3
*I h1/clkbuf_4_12__f_h1\/gclk5:A I *D CLKBUF_X3
*I h1/clkbuf_4_13__f_h1\/gclk5:A I *D CLKBUF_X3
*I h1/clkbuf_4_14__f_h1\/gclk5:A I *D CLKBUF_X3
*I h1/clkbuf_4_15__f_h1\/gclk5:A I *D CLKBUF_X3
*CAP
1 clknet_0_h1\/gclk5:0 0.099271
2 clknet_0_h1\/gclk5:1 0.111586
3 clknet_0_h1\/gclk5:2 0.16384
4 clknet_0_h1\/gclk5:3 0.0689661
5 clknet_0_h1\/gclk5:4 0.292613
6 clknet_0_h1\/gclk5:5 0.212481
7 clknet_0_h1\/gclk5:6 0.480281
8 clknet_0_h1\/gclk5:7 0.340871
9 clknet_0_h1\/gclk5:8 0.184822
10 clknet_0_h1\/gclk5:9 0.192685
11 clknet_0_h1\/gclk5:10 0.511462
12 clknet_0_h1\/gclk5:11 0.0152893
13 clknet_0_h1\/gclk5:12 0.384477
14 clknet_0_h1\/gclk5:13 0.332643
15 clknet_0_h1\/gclk5:14 0.495571
16 clknet_0_h1\/gclk5:15 0.253022
17 clknet_0_h1\/gclk5:16 0.265282
18 clknet_0_h1\/gclk5:17 0.696612
19 clknet_0_h1\/gclk5:18 0.600206
20 clknet_0_h1\/gclk5:19 0.341601
21 clknet_0_h1\/gclk5:20 0.358441
22 clknet_0_h1\/gclk5:21 0.696028
23 clknet_0_h1\/gclk5:22 0.657148
24 clknet_0_h1\/gclk5:23 0.349647
25 clknet_0_h1\/gclk5:24 0.672967
*RES
1 clknet_0_h1\/gclk5:0 clknet_0_h1\/gclk5:20 0.00408619
2 h1/clkbuf_4_10__f_h1\/gclk5:A clknet_0_h1\/gclk5:25 1e-06
3 clknet_0_h1\/gclk5:25 clknet_0_h1\/gclk5:26 1e-06
4 clknet_0_h1\/gclk5:26 clknet_0_h1\/gclk5:27 1e-06
5 clknet_0_h1\/gclk5:27 clknet_0_h1\/gclk5:28 1e-06
6 clknet_0_h1\/gclk5:28 clknet_0_h1\/gclk5:0 1e-06
7 clknet_0_h1\/gclk5:1 clknet_0_h1\/gclk5:20 0.00459312
8 h1/clkbuf_4_8__f_h1\/gclk5:A clknet_0_h1\/gclk5:30 1e-06
9 clknet_0_h1\/gclk5:30 clknet_0_h1\/gclk5:31 1e-06
10 clknet_0_h1\/gclk5:31 clknet_0_h1\/gclk5:32 1e-06
11 clknet_0_h1\/gclk5:32 clknet_0_h1\/gclk5:33 1e-06
12 clknet_0_h1\/gclk5:33 clknet_0_h1\/gclk5:1 1e-06
13 clknet_0_h1\/gclk5:2 clknet_0_h1\/gclk5:4 0.00674398
14 h1/clkbuf_4_9__f_h1\/gclk5:A clknet_0_h1\/gclk5:35 1e-06
15 clknet_0_h1\/gclk5:35 clknet_0_h1\/gclk5:36 1e-06
16 clknet_0_h1\/gclk5:36 clknet_0_h1\/gclk5:37 1e-06
17 clknet_0_h1\/gclk5:37 clknet_0_h1\/gclk5:38 1e-06
18 clknet_0_h1\/gclk5:38 clknet_0_h1\/gclk5:2 1e-06
19 h1/clkbuf_4_6__f_h1\/gclk5:A clknet_0_h1\/gclk5:40 1e-06
20 clknet_0_h1\/gclk5:40 clknet_0_h1\/gclk5:41 1e-06
21 clknet_0_h1\/gclk5:41 clknet_0_h1\/gclk5:42 1e-06
22 clknet_0_h1\/gclk5:42 clknet_0_h1\/gclk5:43 1e-06
23 clknet_0_h1\/gclk5:43 clknet_0_h1\/gclk5:4 1e-06
24 clknet_0_h1\/gclk5:3 clknet_0_h1\/gclk5:19 0.00283878
25 h1/clkbuf_4_11__f_h1\/gclk5:A clknet_0_h1\/gclk5:45 1e-06
26 clknet_0_h1\/gclk5:45 clknet_0_h1\/gclk5:46 1e-06
27 clknet_0_h1\/gclk5:46 clknet_0_h1\/gclk5:47 1e-06
28 clknet_0_h1\/gclk5:47 clknet_0_h1\/gclk5:48 1e-06
29 clknet_0_h1\/gclk5:48 clknet_0_h1\/gclk5:3 1e-06
30 clknet_0_h1\/gclk5:4 clknet_0_h1\/gclk5:23 0.00530056
31 clknet_0_h1\/gclk5:5 clknet_0_h1\/gclk5:21 0.00359879
32 h1/clkbuf_4_14__f_h1\/gclk5:A clknet_0_h1\/gclk5:50 1e-06
33 clknet_0_h1\/gclk5:50 clknet_0_h1\/gclk5:51 1e-06
34 clknet_0_h1\/gclk5:51 clknet_0_h1\/gclk5:52 1e-06
35 clknet_0_h1\/gclk5:52 clknet_0_h1\/gclk5:53 1e-06
36 clknet_0_h1\/gclk5:53 clknet_0_h1\/gclk5:5 1e-06
37 clknet_0_h1\/gclk5:6 clknet_0_h1\/gclk5:22 0.0197693
38 h1/clkbuf_4_1__f_h1\/gclk5:A clknet_0_h1\/gclk5:55 1e-06
39 clknet_0_h1\/gclk5:55 clknet_0_h1\/gclk5:56 1e-06
40 clknet_0_h1\/gclk5:56 clknet_0_h1\/gclk5:57 1e-06
41 clknet_0_h1\/gclk5:57 clknet_0_h1\/gclk5:58 1e-06
42 clknet_0_h1\/gclk5:58 clknet_0_h1\/gclk5:6 1e-06
43 clknet_0_h1\/gclk5:7 clknet_0_h1\/gclk5:23 0.00800942
44 h1/clkbuf_4_4__f_h1\/gclk5:A clknet_0_h1\/gclk5:60 1e-06
45 clknet_0_h1\/gclk5:60 clknet_0_h1\/gclk5:61 1e-06
46 clknet_0_h1\/gclk5:61 clknet_0_h1\/gclk5:62 1e-06
47 clknet_0_h1\/gclk5:62 clknet_0_h1\/gclk5:63 1e-06
48 clknet_0_h1\/gclk5:63 clknet_0_h1\/gclk5:7 1e-06
49 clknet_0_h1\/gclk5:8 clknet_0_h1\/gclk5:8 1e-06
50 h1/clkbuf_0_h1\/gclk5:Z clknet_0_h1\/gclk5:65 1e-06
51 clknet_0_h1\/gclk5:65 clknet_0_h1\/gclk5:66 1e-06
52 clknet_0_h1\/gclk5:66 clknet_0_h1\/gclk5:67 1e-06
53 clknet_0_h1\/gclk5:67 clknet_0_h1\/gclk5:68 1e-06
54 clknet_0_h1\/gclk5:68 clknet_0_h1\/gclk5:8 1e-06
55 clknet_0_h1\/gclk5:9 clknet_0_h1\/gclk5:22 0.00125868
56 h1/clkbuf_4_0__f_h1\/gclk5:A clknet_0_h1\/gclk5:70 1e-06
57 clknet_0_h1\/gclk5:70 clknet_0_h1\/gclk5:71 1e-06
58 clknet_0_h1\/gclk5:71 clknet_0_h1\/gclk5:72 1e-06
59 clknet_0_h1\/gclk5:72 clknet_0_h1\/gclk5:73 1e-06
60 clknet_0_h1\/gclk5:73 clknet_0_h1\/gclk5:9 1e-06
61 clknet_0_h1\/gclk5:10 clknet_0_h1\/gclk5:18 0.00969391
62 h1/clkbuf_4_12__f_h1\/gclk5:A clknet_0_h1\/gclk5:75 1e-06
63 clknet_0_h1\/gclk5:75 clknet_0_h1\/gclk5:76 1e-06
64 clknet_0_h1\/gclk5:76 clknet_0_h1\/gclk5:77 1e-06
65 clknet_0_h1\/gclk5:77 clknet_0_h1\/gclk5:78 1e-06
66 clknet_0_h1\/gclk5:78 clknet_0_h1\/gclk5:10 1e-06
67 clknet_0_h1\/gclk5:11 clknet_0_h1\/gclk5:24 0.000629338
68 h1/clkbuf_4_2__f_h1\/gclk5:A clknet_0_h1\/gclk5:80 1e-06
69 clknet_0_h1\/gclk5:80 clknet_0_h1\/gclk5:81 1e-06
70 clknet_0_h1\/gclk5:81 clknet_0_h1\/gclk5:82 1e-06
71 clknet_0_h1\/gclk5:82 clknet_0_h1\/gclk5:83 1e-06
72 clknet_0_h1\/gclk5:83 clknet_0_h1\/gclk5:11 1e-06
73 clknet_0_h1\/gclk5:12 clknet_0_h1\/gclk5:18 0.0084863
74 h1/clkbuf_4_7__f_h1\/gclk5:A clknet_0_h1\/gclk5:85 1e-06
75 clknet_0_h1\/gclk5:85 clknet_0_h1\/gclk5:86 1e-06
76 clknet_0_h1\/gclk5:86 clknet_0_h1\/gclk5:87 1e-06
77 clknet_0_h1\/gclk5:87 clknet_0_h1\/gclk5:88 1e-06
78 clknet_0_h1\/gclk5:88 clknet_0_h1\/gclk5:12 1e-06
79 clknet_0_h1\/gclk5:13 clknet_0_h1\/gclk5:21 0.0136922
80 h1/clkbuf_4_15__f_h1\/gclk5:A clknet_0_h1\/gclk5:90 1e-06
81 clknet_0_h1\/gclk5:90 clknet_0_h1\/gclk5:91 1e-06
82 clknet_0_h1\/gclk5:91 clknet_0_h1\/gclk5:92 1e-06
83 clknet_0_h1\/gclk5:92 clknet_0_h1\/gclk5:93 1e-06
84 clknet_0_h1\/gclk5:93 clknet_0_h1\/gclk5:13 1e-06
85 clknet_0_h1\/gclk5:14 clknet_0_h1\/gclk5:24 0.0203987
86 h1/clkbuf_4_3__f_h1\/gclk5:A clknet_0_h1\/gclk5:95 1e-06
87 clknet_0_h1\/gclk5:95 clknet_0_h1\/gclk5:96 1e-06
88 clknet_0_h1\/gclk5:96 clknet_0_h1\/gclk5:97 1e-06
89 clknet_0_h1\/gclk5:97 clknet_0_h1\/gclk5:98 1e-06
90 clknet_0_h1\/gclk5:98 clknet_0_h1\/gclk5:14 1e-06
91 clknet_0_h1\/gclk5:15 clknet_0_h1\/gclk5:17 0.0104149
92 h1/clkbuf_4_5__f_h1\/gclk5:A clknet_0_h1\/gclk5:100 1e-06
93 clknet_0_h1\/gclk5:100 clknet_0_h1\/gclk5:101 1e-06
94 clknet_0_h1\/gclk5:101 clknet_0_h1\/gclk5:102 1e-06
95 clknet_0_h1\/gclk5:102 clknet_0_h1\/gclk5:103 1e-06
96 clknet_0_h1\/gclk5:103 clknet_0_h1\/gclk5:15 1e-06
97 clknet_0_h1\/gclk5:16 clknet_0_h1\/gclk5:17 0.0109195
98 h1/clkbuf_4_13__f_h1\/gclk5:A clknet_0_h1\/gclk5:105 1e-06
99 clknet_0_h1\/gclk5:105 clknet_0_h1\/gclk5:106 1e-06
100 clknet_0_h1\/gclk5:106 clknet_0_h1\/gclk5:107 1e-06
101 clknet_0_h1\/gclk5:107 clknet_0_h1\/gclk5:108 1e-06
102 clknet_0_h1\/gclk5:108 clknet_0_h1\/gclk5:16 1e-06
103 clknet_0_h1\/gclk5:17 clknet_0_h1\/gclk5:12 0.00733952
104 clknet_0_h1\/gclk5:18 clknet_0_h1\/gclk5:8 0.00652544
105 clknet_0_h1\/gclk5:19 clknet_0_h1\/gclk5:5 0.00514735
106 clknet_0_h1\/gclk5:20 clknet_0_h1\/gclk5:19 0.00607484
107 clknet_0_h1\/gclk5:21 clknet_0_h1\/gclk5:10 0.0113589
108 clknet_0_h1\/gclk5:22 clknet_0_h1\/gclk5:7 0.00602152
109 clknet_0_h1\/gclk5:23 clknet_0_h1\/gclk5:8 0.00108219
110 clknet_0_h1\/gclk5:24 clknet_0_h1\/gclk5:9 0.00667264
*END

*D_NET clknet_4_0__leaf_h1\/gclk5 1.16686
*CONN
*I h1/ff106:CK I *D DFF_X1
*I h1/ff112:CK I *D DFF_X1
*I h1/ff114:CK I *D DFF_X1
*I h1/ff121:CK I *D DFF_X1
*I h1/ff13:CK I *D DFF_X1
*I h1/ff138:CK I *D DFF_X1
*I h1/ff16:CK I *D DFF_X1
*I h1/clkbuf_4_0__f_h1\/gclk5:Z O *D CLKBUF_X3
*I clkload0:A I *D INV_X4
*CAP
1 clknet_4_0__leaf_h1\/gclk5:0 0.121383
2 clknet_4_0__leaf_h1\/gclk5:1 0.196168
3 clknet_4_0__leaf_h1\/gclk5:2 0.117625
4 clknet_4_0__leaf_h1\/gclk5:3 0.0413004
5 clknet_4_0__leaf_h1\/gclk5:4 0.0487225
6 clknet_4_0__leaf_h1\/gclk5:5 0.0993427
7 clknet_4_0__leaf_h1\/gclk5:6 0.0125893
8 clknet_4_0__leaf_h1\/gclk5:7 0.0590006
9 clknet_4_0__leaf_h1\/gclk5:8 0.183766
10 clknet_4_0__leaf_h1\/gclk5:9 0.226607
11 clknet_4_0__leaf_h1\/gclk5:10 0.0603535
*RES
1 clknet_4_0__leaf_h1\/gclk5:0 clknet_4_0__leaf_h1\/gclk5:1 0.011544
2 h1/ff138:CK clknet_4_0__leaf_h1\/gclk5:11 1e-06
3 clknet_4_0__leaf_h1\/gclk5:11 clknet_4_0__leaf_h1\/gclk5:0 1e-06
4 h1/ff121:CK clknet_4_0__leaf_h1\/gclk5:13 1e-06
5 clknet_4_0__leaf_h1\/gclk5:13 clknet_4_0__leaf_h1\/gclk5:1 1e-06
6 clknet_4_0__leaf_h1\/gclk5:1 clknet_4_0__leaf_h1\/gclk5:2 0.00711226
7 h1/ff112:CK clknet_4_0__leaf_h1\/gclk5:15 1e-06
8 clknet_4_0__leaf_h1\/gclk5:15 clknet_4_0__leaf_h1\/gclk5:2 1e-06
9 clknet_4_0__leaf_h1\/gclk5:2 clknet_4_0__leaf_h1\/gclk5:9 0.00407436
10 clknet_4_0__leaf_h1\/gclk5:3 clknet_4_0__leaf_h1\/gclk5:4 0.00392783
11 h1/ff114:CK clknet_4_0__leaf_h1\/gclk5:17 1e-06
12 clknet_4_0__leaf_h1\/gclk5:17 clknet_4_0__leaf_h1\/gclk5:3 1e-06
13 clkload0:A clknet_4_0__leaf_h1\/gclk5:19 1e-06
14 clknet_4_0__leaf_h1\/gclk5:19 clknet_4_0__leaf_h1\/gclk5:4 1e-06
15 clknet_4_0__leaf_h1\/gclk5:4 clknet_4_0__leaf_h1\/gclk5:10 0.000705865
16 clknet_4_0__leaf_h1\/gclk5:5 clknet_4_0__leaf_h1\/gclk5:10 0.00383669
17 h1/ff13:CK clknet_4_0__leaf_h1\/gclk5:21 1e-06
18 clknet_4_0__leaf_h1\/gclk5:21 clknet_4_0__leaf_h1\/gclk5:5 1e-06
19 clknet_4_0__leaf_h1\/gclk5:6 clknet_4_0__leaf_h1\/gclk5:6 1e-06
20 h1/clkbuf_4_0__f_h1\/gclk5:Z clknet_4_0__leaf_h1\/gclk5:23 1e-06
21 clknet_4_0__leaf_h1\/gclk5:23 clknet_4_0__leaf_h1\/gclk5:6 1e-06
22 clknet_4_0__leaf_h1\/gclk5:7 clknet_4_0__leaf_h1\/gclk5:8 0.00561118
23 h1/ff106:CK clknet_4_0__leaf_h1\/gclk5:25 1e-06
24 clknet_4_0__leaf_h1\/gclk5:25 clknet_4_0__leaf_h1\/gclk5:7 1e-06
25 h1/ff16:CK clknet_4_0__leaf_h1\/gclk5:27 1e-06
26 clknet_4_0__leaf_h1\/gclk5:27 clknet_4_0__leaf_h1\/gclk5:8 1e-06
27 clknet_4_0__leaf_h1\/gclk5:8 clknet_4_0__leaf_h1\/gclk5:9 0.0118657
28 clknet_4_0__leaf_h1\/gclk5:9 clknet_4_0__leaf_h1\/gclk5:5 0.00561118
29 clknet_4_0__leaf_h1\/gclk5:10 clknet_4_0__leaf_h1\/gclk5:6 0.00119729
*END

*D_NET clknet_4_1__leaf_h1\/gclk5 0.909398
*CONN
*I h1/ff103:CK I *D DFF_X1
*I h1/ff105:CK I *D DFF_X1
*I h1/ff113:CK I *D DFF_X1
*I h1/ff132:CK I *D DFF_X1
*I h1/clkbuf_4_1__f_h1\/gclk5:Z O *D CLKBUF_X3
*I clkload1:A I *D INV_X8
*CAP
1 clknet_4_1__leaf_h1\/gclk5:0 0.105788
2 clknet_4_1__leaf_h1\/gclk5:1 0.117607
3 clknet_4_1__leaf_h1\/gclk5:2 0.0875802
4 clknet_4_1__leaf_h1\/gclk5:3 0.0390644
5 clknet_4_1__leaf_h1\/gclk5:4 0.24132
6 clknet_4_1__leaf_h1\/gclk5:5 0.210448
7 clknet_4_1__leaf_h1\/gclk5:6 0.107592
*RES
1 clknet_4_1__leaf_h1\/gclk5:0 clknet_4_1__leaf_h1\/gclk5:1 0.0100608
2 h1/ff103:CK clknet_4_1__leaf_h1\/gclk5:7 1e-06
3 clknet_4_1__leaf_h1\/gclk5:7 clknet_4_1__leaf_h1\/gclk5:0 1e-06
4 clkload1:A clknet_4_1__leaf_h1\/gclk5:9 1e-06
5 clknet_4_1__leaf_h1\/gclk5:9 clknet_4_1__leaf_h1\/gclk5:1 1e-06
6 clknet_4_1__leaf_h1\/gclk5:1 clknet_4_1__leaf_h1\/gclk5:6 0.00112402
7 clknet_4_1__leaf_h1\/gclk5:2 clknet_4_1__leaf_h1\/gclk5:6 0.00832921
8 h1/ff132:CK clknet_4_1__leaf_h1\/gclk5:11 1e-06
9 clknet_4_1__leaf_h1\/gclk5:11 clknet_4_1__leaf_h1\/gclk5:2 1e-06
10 clknet_4_1__leaf_h1\/gclk5:3 clknet_4_1__leaf_h1\/gclk5:3 1e-06
11 h1/clkbuf_4_1__f_h1\/gclk5:Z clknet_4_1__leaf_h1\/gclk5:13 1e-06
12 clknet_4_1__leaf_h1\/gclk5:13 clknet_4_1__leaf_h1\/gclk5:3 1e-06
13 clknet_4_1__leaf_h1\/gclk5:4 clknet_4_1__leaf_h1\/gclk5:3 0.00293604
14 h1/ff105:CK clknet_4_1__leaf_h1\/gclk5:15 1e-06
15 clknet_4_1__leaf_h1\/gclk5:15 clknet_4_1__leaf_h1\/gclk5:4 1e-06
16 clknet_4_1__leaf_h1\/gclk5:5 clknet_4_1__leaf_h1\/gclk5:4 0.0200144
17 h1/ff113:CK clknet_4_1__leaf_h1\/gclk5:17 1e-06
18 clknet_4_1__leaf_h1\/gclk5:17 clknet_4_1__leaf_h1\/gclk5:5 1e-06
19 clknet_4_1__leaf_h1\/gclk5:6 clknet_4_1__leaf_h1\/gclk5:3 0.000779132
*END

*D_NET clknet_4_2__leaf_h1\/gclk5 1.04999
*CONN
*I h1/ff124:CK I *D DFF_X1
*I h1/ff139:CK I *D DFF_X1
*I h1/ff18:CK I *D DFF_X1
*I h1/ff19:CK I *D DFF_X1
*I h1/ff27:CK I *D DFF_X1
*I h1/ff32:CK I *D DFF_X1
*I h1/clkbuf_4_2__f_h1\/gclk5:Z O *D CLKBUF_X3
*I clkload2:A I *D INV_X8
*CAP
1 clknet_4_2__leaf_h1\/gclk5:0 0.121383
2 clknet_4_2__leaf_h1\/gclk5:1 0.0199174
3 clknet_4_2__leaf_h1\/gclk5:2 9.395e-05
4 clknet_4_2__leaf_h1\/gclk5:3 0.0590006
5 clknet_4_2__leaf_h1\/gclk5:4 0.105224
6 clknet_4_2__leaf_h1\/gclk5:5 0.0517665
7 clknet_4_2__leaf_h1\/gclk5:6 0.126645
8 clknet_4_2__leaf_h1\/gclk5:7 0.0999628
9 clknet_4_2__leaf_h1\/gclk5:8 0.226607
10 clknet_4_2__leaf_h1\/gclk5:9 0.189027
11 clknet_4_2__leaf_h1\/gclk5:10 0.0503572
*RES
1 clknet_4_2__leaf_h1\/gclk5:0 clknet_4_2__leaf_h1\/gclk5:9 0.011544
2 h1/ff18:CK clknet_4_2__leaf_h1\/gclk5:11 1e-06
3 clknet_4_2__leaf_h1\/gclk5:11 clknet_4_2__leaf_h1\/gclk5:0 1e-06
4 clknet_4_2__leaf_h1\/gclk5:1 clknet_4_2__leaf_h1\/gclk5:10 0.00189422
5 clkload2:A clknet_4_2__leaf_h1\/gclk5:13 1e-06
6 clknet_4_2__leaf_h1\/gclk5:13 clknet_4_2__leaf_h1\/gclk5:1 1e-06
7 clknet_4_2__leaf_h1\/gclk5:2 clknet_4_2__leaf_h1\/gclk5:2 1e-06
8 h1/clkbuf_4_2__f_h1\/gclk5:Z clknet_4_2__leaf_h1\/gclk5:15 1e-06
9 clknet_4_2__leaf_h1\/gclk5:15 clknet_4_2__leaf_h1\/gclk5:2 1e-06
10 clknet_4_2__leaf_h1\/gclk5:3 clknet_4_2__leaf_h1\/gclk5:4 0.00561118
11 h1/ff139:CK clknet_4_2__leaf_h1\/gclk5:17 1e-06
12 clknet_4_2__leaf_h1\/gclk5:17 clknet_4_2__leaf_h1\/gclk5:3 1e-06
13 h1/ff19:CK clknet_4_2__leaf_h1\/gclk5:19 1e-06
14 clknet_4_2__leaf_h1\/gclk5:19 clknet_4_2__leaf_h1\/gclk5:4 1e-06
15 clknet_4_2__leaf_h1\/gclk5:4 clknet_4_2__leaf_h1\/gclk5:9 0.00439602
16 clknet_4_2__leaf_h1\/gclk5:5 clknet_4_2__leaf_h1\/gclk5:10 0.002886
17 h1/ff27:CK clknet_4_2__leaf_h1\/gclk5:21 1e-06
18 clknet_4_2__leaf_h1\/gclk5:21 clknet_4_2__leaf_h1\/gclk5:5 1e-06
19 clknet_4_2__leaf_h1\/gclk5:6 clknet_4_2__leaf_h1\/gclk5:8 0.0100072
20 h1/ff32:CK clknet_4_2__leaf_h1\/gclk5:23 1e-06
21 clknet_4_2__leaf_h1\/gclk5:23 clknet_4_2__leaf_h1\/gclk5:6 1e-06
22 clknet_4_2__leaf_h1\/gclk5:7 clknet_4_2__leaf_h1\/gclk5:8 0.00950684
23 h1/ff124:CK clknet_4_2__leaf_h1\/gclk5:25 1e-06
24 clknet_4_2__leaf_h1\/gclk5:25 clknet_4_2__leaf_h1\/gclk5:7 1e-06
25 clknet_4_2__leaf_h1\/gclk5:8 clknet_4_2__leaf_h1\/gclk5:5 0.00203718
26 clknet_4_2__leaf_h1\/gclk5:9 clknet_4_2__leaf_h1\/gclk5:6 0.00203718
27 clknet_4_2__leaf_h1\/gclk5:10 clknet_4_2__leaf_h1\/gclk5:2 8.935e-06
*END

*D_NET clknet_4_3__leaf_h1\/gclk5 1.56457
*CONN
*I h1/ff100:CK I *D DFF_X1
*I h1/ff11:CK I *D DFF_X1
*I h1/ff111:CK I *D DFF_X1
*I h1/ff123:CK I *D DFF_X1
*I h1/ff135:CK I *D DFF_X1
*I h1/ff21:CK I *D DFF_X1
*I h1/clkbuf_4_3__f_h1\/gclk5:Z O *D CLKBUF_X3
*I clkload3:A I *D INV_X8
*CAP
1 clknet_4_3__leaf_h1\/gclk5:0 0.210448
2 clknet_4_3__leaf_h1\/gclk5:1 0.345116
3 clknet_4_3__leaf_h1\/gclk5:2 0.0757801
4 clknet_4_3__leaf_h1\/gclk5:3 0.0462234
5 clknet_4_3__leaf_h1\/gclk5:4 0.0882566
6 clknet_4_3__leaf_h1\/gclk5:5 0.187919
7 clknet_4_3__leaf_h1\/gclk5:6 0.273131
8 clknet_4_3__leaf_h1\/gclk5:7 0.105224
9 clknet_4_3__leaf_h1\/gclk5:8 0.23247
*RES
1 clknet_4_3__leaf_h1\/gclk5:0 clknet_4_3__leaf_h1\/gclk5:1 0.0200144
2 h1/ff135:CK clknet_4_3__leaf_h1\/gclk5:9 1e-06
3 clknet_4_3__leaf_h1\/gclk5:9 clknet_4_3__leaf_h1\/gclk5:0 1e-06
4 h1/ff100:CK clknet_4_3__leaf_h1\/gclk5:11 1e-06
5 clknet_4_3__leaf_h1\/gclk5:11 clknet_4_3__leaf_h1\/gclk5:1 1e-06
6 clknet_4_3__leaf_h1\/gclk5:1 clknet_4_3__leaf_h1\/gclk5:8 0.0128074
7 clknet_4_3__leaf_h1\/gclk5:2 clknet_4_3__leaf_h1\/gclk5:8 0.00281095
8 h1/ff111:CK clknet_4_3__leaf_h1\/gclk5:13 1e-06
9 clknet_4_3__leaf_h1\/gclk5:13 clknet_4_3__leaf_h1\/gclk5:2 1e-06
10 clknet_4_3__leaf_h1\/gclk5:3 clknet_4_3__leaf_h1\/gclk5:2 0.00439602
11 h1/ff123:CK clknet_4_3__leaf_h1\/gclk5:15 1e-06
12 clknet_4_3__leaf_h1\/gclk5:15 clknet_4_3__leaf_h1\/gclk5:3 1e-06
13 clknet_4_3__leaf_h1\/gclk5:4 clknet_4_3__leaf_h1\/gclk5:5 0.00190316
14 clkload3:A clknet_4_3__leaf_h1\/gclk5:17 1e-06
15 clknet_4_3__leaf_h1\/gclk5:17 clknet_4_3__leaf_h1\/gclk5:4 1e-06
16 h1/clkbuf_4_3__f_h1\/gclk5:Z clknet_4_3__leaf_h1\/gclk5:19 1e-06
17 clknet_4_3__leaf_h1\/gclk5:19 clknet_4_3__leaf_h1\/gclk5:5 1e-06
18 clknet_4_3__leaf_h1\/gclk5:5 clknet_4_3__leaf_h1\/gclk5:5 1e-06
19 clknet_4_3__leaf_h1\/gclk5:6 clknet_4_3__leaf_h1\/gclk5:5 0.0159686
20 h1/ff21:CK clknet_4_3__leaf_h1\/gclk5:21 1e-06
21 clknet_4_3__leaf_h1\/gclk5:21 clknet_4_3__leaf_h1\/gclk5:6 1e-06
22 clknet_4_3__leaf_h1\/gclk5:7 clknet_4_3__leaf_h1\/gclk5:6 0.0100072
23 h1/ff11:CK clknet_4_3__leaf_h1\/gclk5:23 1e-06
24 clknet_4_3__leaf_h1\/gclk5:23 clknet_4_3__leaf_h1\/gclk5:7 1e-06
25 clknet_4_3__leaf_h1\/gclk5:8 clknet_4_3__leaf_h1\/gclk5:4 0.00649038
*END

*D_NET clknet_4_4__leaf_h1\/gclk5 2.01015
*CONN
*I h1/ff129:CK I *D DFF_X1
*I h1/ff137:CK I *D DFF_X1
*I h1/ff2:CK I *D DFF_X1
*I h1/ff22:CK I *D DFF_X1
*I h1/ff29:CK I *D DFF_X1
*I h1/ff37:CK I *D DFF_X1
*I h1/clkbuf_4_4__f_h1\/gclk5:Z O *D CLKBUF_X3
*I clkload4:A I *D INV_X8
*CAP
1 clknet_4_4__leaf_h1\/gclk5:0 0.36415
2 clknet_4_4__leaf_h1\/gclk5:1 0.40763
3 clknet_4_4__leaf_h1\/gclk5:2 0.0634914
4 clknet_4_4__leaf_h1\/gclk5:3 0.074709
5 clknet_4_4__leaf_h1\/gclk5:4 0.186961
6 clknet_4_4__leaf_h1\/gclk5:5 0.187712
7 clknet_4_4__leaf_h1\/gclk5:6 0.269449
8 clknet_4_4__leaf_h1\/gclk5:7 0.148065
9 clknet_4_4__leaf_h1\/gclk5:8 0.307987
*RES
1 clknet_4_4__leaf_h1\/gclk5:0 clknet_4_4__leaf_h1\/gclk5:1 0.0346321
2 h1/ff129:CK clknet_4_4__leaf_h1\/gclk5:9 1e-06
3 clknet_4_4__leaf_h1\/gclk5:9 clknet_4_4__leaf_h1\/gclk5:0 1e-06
4 h1/ff137:CK clknet_4_4__leaf_h1\/gclk5:11 1e-06
5 clknet_4_4__leaf_h1\/gclk5:11 clknet_4_4__leaf_h1\/gclk5:1 1e-06
6 clknet_4_4__leaf_h1\/gclk5:1 clknet_4_4__leaf_h1\/gclk5:2 0.00413512
7 clkload4:A clknet_4_4__leaf_h1\/gclk5:13 1e-06
8 clknet_4_4__leaf_h1\/gclk5:13 clknet_4_4__leaf_h1\/gclk5:2 1e-06
9 clknet_4_4__leaf_h1\/gclk5:2 clknet_4_4__leaf_h1\/gclk5:3 0.00190316
10 h1/clkbuf_4_4__f_h1\/gclk5:Z clknet_4_4__leaf_h1\/gclk5:15 1e-06
11 clknet_4_4__leaf_h1\/gclk5:15 clknet_4_4__leaf_h1\/gclk5:3 1e-06
12 clknet_4_4__leaf_h1\/gclk5:3 clknet_4_4__leaf_h1\/gclk5:3 1e-06
13 clknet_4_4__leaf_h1\/gclk5:4 clknet_4_4__leaf_h1\/gclk5:8 0.00623663
14 h1/ff29:CK clknet_4_4__leaf_h1\/gclk5:17 1e-06
15 clknet_4_4__leaf_h1\/gclk5:17 clknet_4_4__leaf_h1\/gclk5:4 1e-06
16 clknet_4_4__leaf_h1\/gclk5:5 clknet_4_4__leaf_h1\/gclk5:8 0.0178521
17 h1/ff2:CK clknet_4_4__leaf_h1\/gclk5:19 1e-06
18 clknet_4_4__leaf_h1\/gclk5:19 clknet_4_4__leaf_h1\/gclk5:5 1e-06
19 clknet_4_4__leaf_h1\/gclk5:6 clknet_4_4__leaf_h1\/gclk5:4 0.011544
20 h1/ff37:CK clknet_4_4__leaf_h1\/gclk5:21 1e-06
21 clknet_4_4__leaf_h1\/gclk5:21 clknet_4_4__leaf_h1\/gclk5:6 1e-06
22 clknet_4_4__leaf_h1\/gclk5:7 clknet_4_4__leaf_h1\/gclk5:6 0.0140816
23 h1/ff22:CK clknet_4_4__leaf_h1\/gclk5:23 1e-06
24 clknet_4_4__leaf_h1\/gclk5:23 clknet_4_4__leaf_h1\/gclk5:7 1e-06
25 clknet_4_4__leaf_h1\/gclk5:8 clknet_4_4__leaf_h1\/gclk5:3 0.00520196
*END

*D_NET clknet_4_5__leaf_h1\/gclk5 1.19125
*CONN
*I h1/ff102:CK I *D DFF_X1
*I h1/ff119:CK I *D DFF_X1
*I h1/ff136:CK I *D DFF_X1
*I h1/ff140:CK I *D DFF_X1
*I h1/ff3:CK I *D DFF_X1
*I h1/ff35:CK I *D DFF_X1
*I h1/ff40:CK I *D DFF_X1
*I h1/clkbuf_4_5__f_h1\/gclk5:Z O *D CLKBUF_X3
*I clkload5:A I *D INV_X4
*CAP
1 clknet_4_5__leaf_h1\/gclk5:0 0.0890646
2 clknet_4_5__leaf_h1\/gclk5:1 0.167607
3 clknet_4_5__leaf_h1\/gclk5:2 0.148065
4 clknet_4_5__leaf_h1\/gclk5:3 0.0462234
5 clknet_4_5__leaf_h1\/gclk5:4 0.175762
6 clknet_4_5__leaf_h1\/gclk5:5 0.0462234
7 clknet_4_5__leaf_h1\/gclk5:6 0.0868098
8 clknet_4_5__leaf_h1\/gclk5:7 0.139798
9 clknet_4_5__leaf_h1\/gclk5:8 0.00712141
10 clknet_4_5__leaf_h1\/gclk5:9 0.167607
11 clknet_4_5__leaf_h1\/gclk5:10 0.116968
*RES
1 clknet_4_5__leaf_h1\/gclk5:0 clknet_4_5__leaf_h1\/gclk5:1 0.00847038
2 h1/ff35:CK clknet_4_5__leaf_h1\/gclk5:11 1e-06
3 clknet_4_5__leaf_h1\/gclk5:11 clknet_4_5__leaf_h1\/gclk5:0 1e-06
4 h1/ff40:CK clknet_4_5__leaf_h1\/gclk5:13 1e-06
5 clknet_4_5__leaf_h1\/gclk5:13 clknet_4_5__leaf_h1\/gclk5:1 1e-06
6 clknet_4_5__leaf_h1\/gclk5:1 clknet_4_5__leaf_h1\/gclk5:9 0.00746966
7 clknet_4_5__leaf_h1\/gclk5:2 clknet_4_5__leaf_h1\/gclk5:4 0.00968554
8 h1/ff3:CK clknet_4_5__leaf_h1\/gclk5:15 1e-06
9 clknet_4_5__leaf_h1\/gclk5:15 clknet_4_5__leaf_h1\/gclk5:2 1e-06
10 h1/ff119:CK clknet_4_5__leaf_h1\/gclk5:17 1e-06
11 clknet_4_5__leaf_h1\/gclk5:17 clknet_4_5__leaf_h1\/gclk5:4 1e-06
12 clknet_4_5__leaf_h1\/gclk5:3 clknet_4_5__leaf_h1\/gclk5:2 0.00439602
13 h1/ff136:CK clknet_4_5__leaf_h1\/gclk5:19 1e-06
14 clknet_4_5__leaf_h1\/gclk5:19 clknet_4_5__leaf_h1\/gclk5:3 1e-06
15 clknet_4_5__leaf_h1\/gclk5:4 clknet_4_5__leaf_h1\/gclk5:6 0.00703006
16 clkload5:A clknet_4_5__leaf_h1\/gclk5:21 1e-06
17 clknet_4_5__leaf_h1\/gclk5:21 clknet_4_5__leaf_h1\/gclk5:6 1e-06
18 clknet_4_5__leaf_h1\/gclk5:5 clknet_4_5__leaf_h1\/gclk5:9 0.00439602
19 h1/ff102:CK clknet_4_5__leaf_h1\/gclk5:23 1e-06
20 clknet_4_5__leaf_h1\/gclk5:23 clknet_4_5__leaf_h1\/gclk5:5 1e-06
21 clknet_4_5__leaf_h1\/gclk5:6 clknet_4_5__leaf_h1\/gclk5:10 0.00122588
22 clknet_4_5__leaf_h1\/gclk5:7 clknet_4_5__leaf_h1\/gclk5:10 0.00922092
23 h1/ff140:CK clknet_4_5__leaf_h1\/gclk5:25 1e-06
24 clknet_4_5__leaf_h1\/gclk5:25 clknet_4_5__leaf_h1\/gclk5:7 1e-06
25 clknet_4_5__leaf_h1\/gclk5:8 clknet_4_5__leaf_h1\/gclk5:8 1e-06
26 h1/clkbuf_4_5__f_h1\/gclk5:Z clknet_4_5__leaf_h1\/gclk5:27 1e-06
27 clknet_4_5__leaf_h1\/gclk5:27 clknet_4_5__leaf_h1\/gclk5:8 1e-06
28 clknet_4_5__leaf_h1\/gclk5:9 clknet_4_5__leaf_h1\/gclk5:7 0.00407436
29 clknet_4_5__leaf_h1\/gclk5:10 clknet_4_5__leaf_h1\/gclk5:8 0.000677273
*END

*D_NET clknet_4_6__leaf_h1\/gclk5 1.72789
*CONN
*I h1/ff104:CK I *D DFF_X1
*I h1/ff107:CK I *D DFF_X1
*I h1/ff118:CK I *D DFF_X1
*I h1/ff131:CK I *D DFF_X1
*I h1/ff134:CK I *D DFF_X1
*I h1/ff142:CK I *D DFF_X1
*I h1/ff20:CK I *D DFF_X1
*I h1/ff23:CK I *D DFF_X1
*I h1/ff75:CK I *D DFF_X1
*I h1/clkbuf_4_6__f_h1\/gclk5:Z O *D CLKBUF_X3
*I clkload6:A I *D INV_X4
*CAP
1 clknet_4_6__leaf_h1\/gclk5:0 0.0590006
2 clknet_4_6__leaf_h1\/gclk5:1 0.105224
3 clknet_4_6__leaf_h1\/gclk5:2 0.320351
4 clknet_4_6__leaf_h1\/gclk5:3 0.294139