*SPEF "ieee 1481-1999"
*DESIGN "multi_sink"
*DATE "11:11:11 Fri 11 11, 1111"
*VENDOR "The OpenROAD Project"
*PROGRAM "OpenROAD"
*VERSION "1.0"
*DESIGN_FLOW "NAME_SCOPE LOCAL" "PIN_CAP NONE"
*DIVIDER /
*DELIMITER :
*BUS_DELIMITER []
*T_UNIT 1 NS
*C_UNIT 1 FF
*R_UNIT 1 KOHM
*L_UNIT 1 HENRY

*PORTS
clk I

*D_NET clk 2.53697
*CONN
*P clk I
*I clkbuf_0_clk:A I *D CLKBUF_X3
*CAP
1 clk:0 1.26848
2 clk:1 1.26848
*RES
1 clk:0 clk:1 0.0522133
2 clkbuf_0_clk:A clk:2 1e-06
3 clk:2 clk:3 1e-06
4 clk:3 clk:4 1e-06
5 clk:4 clk:5 1e-06
6 clk:5 clk:0 1e-06
7 clk clk:7 1e-06
8 clk:7 clk:8 1e-06
9 clk:8 clk:9 1e-06
10 clk:9 clk:1 1e-06
11 clk:1 clk:1 1e-06
*END

*D_NET gclk1 0.174422
*CONN
*I gclk1:GCK O *D CLKGATE_X1
*I clkbuf_0_gclk1:A I *D CLKBUF_X3
*CAP
1 gclk1:0 0.0872111
2 gclk1:1 0.0872111
*RES
1 gclk1:0 gclk1:1 0.00358978
2 clkbuf_0_gclk1:A gclk1:2 1e-06
3 gclk1:2 gclk1:3 1e-06
4 gclk1:3 gclk1:4 1e-06
5 gclk1:4 gclk1:5 1e-06
6 gclk1:5 gclk1:0 1e-06
7 gclk1:GCK gclk1:7 1e-06
8 gclk1:7 gclk1:8 1e-06
9 gclk1:8 gclk1:9 1e-06
10 gclk1:9 gclk1:10 1e-06
11 gclk1:10 gclk1:1 1e-06
12 gclk1:1 gclk1:1 1e-06
*END

*D_NET gclk3 0.16457
*CONN
*I gclk3:GCK O *D CLKGATE_X1
*I clkbuf_0_gclk3:A I *D CLKBUF_X3
*CAP
1 gclk3:0 0.0822849
2 gclk3:1 0.0822849
*RES
1 gclk3:0 gclk3:1 0.00338701
2 clkbuf_0_gclk3:A gclk3:2 1e-06
3 gclk3:2 gclk3:3 1e-06
4 gclk3:3 gclk3:4 1e-06
5 gclk3:4 gclk3:5 1e-06
6 gclk3:5 gclk3:0 1e-06
7 gclk3:GCK gclk3:7 1e-06
8 gclk3:7 gclk3:8 1e-06
9 gclk3:8 gclk3:9 1e-06
10 gclk3:9 gclk3:10 1e-06
11 gclk3:10 gclk3:1 1e-06
12 gclk3:1 gclk3:1 1e-06
*END

*D_NET gclk4 0.863463
*CONN
*I gclk4:GCK O *D CLKGATE_X1
*I clkbuf_0_gclk4:A I *D CLKBUF_X3
*I delaybuf_1_core:A I *D CLKBUF_X3
*CAP
1 gclk4:0 0.0382598
2 gclk4:1 0.0186281
3 gclk4:2 0.374844
4 gclk4:3 0.431731
*RES
1 gclk4:0 gclk4:3 0.00157485
2 delaybuf_1_core:A gclk4:4 1e-06
3 gclk4:4 gclk4:5 1e-06
4 gclk4:5 gclk4:6 1e-06
5 gclk4:6 gclk4:7 1e-06
6 gclk4:7 gclk4:0 1e-06
7 gclk4:1 gclk4:1 1e-06
8 gclk4:GCK gclk4:9 1e-06
9 gclk4:9 gclk4:10 1e-06
10 gclk4:10 gclk4:11 1e-06
11 gclk4:11 gclk4:12 1e-06
12 gclk4:12 gclk4:1 1e-06
13 gclk4:2 gclk4:3 0.0154293
14 clkbuf_0_gclk4:A gclk4:14 1e-06
15 gclk4:14 gclk4:15 1e-06
16 gclk4:15 gclk4:16 1e-06
17 gclk4:16 gclk4:17 1e-06
18 gclk4:17 gclk4:2 1e-06
19 gclk4:3 gclk4:1 0.000766771
*END

*D_NET h1/gclk2 0.16457
*CONN
*I h1/gclk2:GCK O *D CLKGATE_X1
*I h1/clkbuf_0_h1\/gclk2:A I *D CLKBUF_X3
*CAP
1 h1/gclk2:0 0.0822849
2 h1/gclk2:1 0.0822849
*RES
1 h1/gclk2:0 h1/gclk2:1 0.00338701
2 h1/clkbuf_0_h1\/gclk2:A h1/gclk2:2 1e-06
3 h1/gclk2:2 h1/gclk2:3 1e-06
4 h1/gclk2:3 h1/gclk2:4 1e-06
5 h1/gclk2:4 h1/gclk2:5 1e-06
6 h1/gclk2:5 h1/gclk2:0 1e-06
7 h1/gclk2:GCK h1/gclk2:7 1e-06
8 h1/gclk2:7 h1/gclk2:8 1e-06
9 h1/gclk2:8 h1/gclk2:9 1e-06
10 h1/gclk2:9 h1/gclk2:10 1e-06
11 h1/gclk2:10 h1/gclk2:1 1e-06
12 h1/gclk2:1 h1/gclk2:1 1e-06
*END

*D_NET h1/gclk5 0.305421
*CONN
*I h1/gclk5:GCK O *D CLKGATE_X1
*I h1/clkbuf_0_h1\/gclk5:A I *D CLKBUF_X3
*CAP
1 h1/gclk5:0 0.152711
2 h1/gclk5:1 0.152711
*RES
1 h1/gclk5:0 h1/gclk5:1 0.00628587
2 h1/clkbuf_0_h1\/gclk5:A h1/gclk5:2 1e-06
3 h1/gclk5:2 h1/gclk5:3 1e-06
4 h1/gclk5:3 h1/gclk5:4 1e-06
5 h1/gclk5:4 h1/gclk5:5 1e-06
6 h1/gclk5:5 h1/gclk5:0 1e-06
7 h1/gclk5:GCK h1/gclk5:7 1e-06
8 h1/gclk5:7 h1/gclk5:8 1e-06
9 h1/gclk5:8 h1/gclk5:9 1e-06
10 h1/gclk5:9 h1/gclk5:10 1e-06
11 h1/gclk5:10 h1/gclk5:1 1e-06
12 h1/gclk5:1 h1/gclk5:1 1e-06
*END

*D_NET gclk4_regs 0.038132
*CONN
*I clkbuf_regs_0_core:Z O *D CLKBUF_X3
*I clkbuf_0_gclk4_regs:A I *D CLKBUF_X3
*CAP
1 gclk4_regs:0 0.019066
2 gclk4_regs:1 0.019066
*RES
1 gclk4_regs:0 gclk4_regs:1 0.000784795
2 clkbuf_0_gclk4_regs:A gclk4_regs:2 1e-06
3 gclk4_regs:2 gclk4_regs:3 1e-06
4 gclk4_regs:3 gclk4_regs:4 1e-06
5 gclk4_regs:4 gclk4_regs:5 1e-06
6 gclk4_regs:5 gclk4_regs:0 1e-06
7 clkbuf_regs_0_core:Z gclk4_regs:7 1e-06
8 gclk4_regs:7 gclk4_regs:8 1e-06
9 gclk4_regs:8 gclk4_regs:9 1e-06
10 gclk4_regs:9 gclk4_regs:10 1e-06
11 gclk4_regs:10 gclk4_regs:1 1e-06
12 gclk4_regs:1 gclk4_regs:1 1e-06
*END

*D_NET clknet_0_clk 0.763772
*CONN
*I clkbuf_0_clk:Z O *D CLKBUF_X3
*I clkbuf_1_0__f_clk:A I *D CLKBUF_X3
*I delaybuf_6_core:A I *D CLKBUF_X3
*CAP
1 clknet_0_clk:0 0.260082
2 clknet_0_clk:1 0.10739
3 clknet_0_clk:2 0.0144135
4 clknet_0_clk:3 0.381886
*RES
1 clknet_0_clk:0 clknet_0_clk:3 0.0107055
2 clkbuf_1_0__f_clk:A clknet_0_clk:4 1e-06
3 clknet_0_clk:4 clknet_0_clk:5 1e-06
4 clknet_0_clk:5 clknet_0_clk:6 1e-06
5 clknet_0_clk:6 clknet_0_clk:7 1e-06
6 clknet_0_clk:7 clknet_0_clk:0 1e-06
7 clknet_0_clk:1 clknet_0_clk:3 0.00442039
8 delaybuf_6_core:A clknet_0_clk:9 1e-06
9 clknet_0_clk:9 clknet_0_clk:10 1e-06
10 clknet_0_clk:10 clknet_0_clk:11 1e-06
11 clknet_0_clk:11 clknet_0_clk:12 1e-06
12 clknet_0_clk:12 clknet_0_clk:1 1e-06
13 clknet_0_clk:2 clknet_0_clk:2 1e-06
14 clkbuf_0_clk:Z clknet_0_clk:14 1e-06
15 clknet_0_clk:14 clknet_0_clk:15 1e-06
16 clknet_0_clk:15 clknet_0_clk:16 1e-06
17 clknet_0_clk:16 clknet_0_clk:17 1e-06
18 clknet_0_clk:17 clknet_0_clk:2 1e-06
19 clknet_0_clk:3 clknet_0_clk:2 0.00059329
*END

*D_NET clknet_1_0__leaf_clk 0.48477
*CONN
*I gclk4:CK I *D CLKGATE_X1
*I clkbuf_1_0__f_clk:Z O *D CLKBUF_X3
*I delaybuf_3_core:A I *D CLKBUF_X3
*CAP
1 clknet_1_0__leaf_clk:0 0.156177
2 clknet_1_0__leaf_clk:1 0.242385
3 clknet_1_0__leaf_clk:2 0.0862076
*RES
1 clknet_1_0__leaf_clk:0 clknet_1_0__leaf_clk:1 0.00642856
2 gclk4:CK clknet_1_0__leaf_clk:3 1e-06
3 clknet_1_0__leaf_clk:3 clknet_1_0__leaf_clk:4 1e-06
4 clknet_1_0__leaf_clk:4 clknet_1_0__leaf_clk:5 1e-06
5 clknet_1_0__leaf_clk:5 clknet_1_0__leaf_clk:6 1e-06
6 clknet_1_0__leaf_clk:6 clknet_1_0__leaf_clk:0 1e-06
7 delaybuf_3_core:A clknet_1_0__leaf_clk:8 1e-06
8 clknet_1_0__leaf_clk:8 clknet_1_0__leaf_clk:9 1e-06
9 clknet_1_0__leaf_clk:9 clknet_1_0__leaf_clk:10 1e-06
10 clknet_1_0__leaf_clk:10 clknet_1_0__leaf_clk:11 1e-06
11 clknet_1_0__leaf_clk:11 clknet_1_0__leaf_clk:1 1e-06
12 clknet_1_0__leaf_clk:1 clknet_1_0__leaf_clk:2 0.00354847
13 clkbuf_1_0__f_clk:Z clknet_1_0__leaf_clk:13 1e-06
14 clknet_1_0__leaf_clk:13 clknet_1_0__leaf_clk:14 1e-06
15 clknet_1_0__leaf_clk:14 clknet_1_0__leaf_clk:15 1e-06
16 clknet_1_0__leaf_clk:15 clknet_1_0__leaf_clk:16 1e-06
17 clknet_1_0__leaf_clk:16 clknet_1_0__leaf_clk:2 1e-06
18 clknet_1_0__leaf_clk:2 clknet_1_0__leaf_clk:2 1e-06
*END

*D_NET clknet_1_1__leaf_clk_1 0.556582
*CONN
*I h1/gclk5:CK I *D CLKGATE_X1
*I clkbuf_1_1__f_clk:Z O *D CLKBUF_X3
*I h1/delaybuf_0_core:A I *D CLKBUF_X3
*CAP
1 clknet_1_1__leaf_clk_1:0 0.0123701
2 clknet_1_1__leaf_clk_1:1 0.0821572
3 clknet_1_1__leaf_clk_1:2 0.183764
4 clknet_1_1__leaf_clk_1:3 0.278291
*RES
1 clknet_1_1__leaf_clk_1:0 clknet_1_1__leaf_clk_1:3 0.000509178
2 h1/delaybuf_0_core:A clknet_1_1__leaf_clk_1:4 1e-06
3 clknet_1_1__leaf_clk_1:4 clknet_1_1__leaf_clk_1:5 1e-06
4 clknet_1_1__leaf_clk_1:5 clknet_1_1__leaf_clk_1:6 1e-06
5 clknet_1_1__leaf_clk_1:6 clknet_1_1__leaf_clk_1:7 1e-06
6 clknet_1_1__leaf_clk_1:7 clknet_1_1__leaf_clk_1:0 1e-06
7 clknet_1_1__leaf_clk_1:1 clknet_1_1__leaf_clk_1:1 1e-06
8 clkbuf_1_1__f_clk:Z clknet_1_1__leaf_clk_1:9 1e-06
9 clknet_1_1__leaf_clk_1:9 clknet_1_1__leaf_clk_1:10 1e-06
10 clknet_1_1__leaf_clk_1:10 clknet_1_1__leaf_clk_1:11 1e-06
11 clknet_1_1__leaf_clk_1:11 clknet_1_1__leaf_clk_1:12 1e-06
12 clknet_1_1__leaf_clk_1:12 clknet_1_1__leaf_clk_1:1 1e-06
13 clknet_1_1__leaf_clk_1:2 clknet_1_1__leaf_clk_1:3 0.00756407
14 h1/gclk5:CK clknet_1_1__leaf_clk_1:14 1e-06
15 clknet_1_1__leaf_clk_1:14 clknet_1_1__leaf_clk_1:15 1e-06
16 clknet_1_1__leaf_clk_1:15 clknet_1_1__leaf_clk_1:16 1e-06
17 clknet_1_1__leaf_clk_1:16 clknet_1_1__leaf_clk_1:17 1e-06
18 clknet_1_1__leaf_clk_1:17 clknet_1_1__leaf_clk_1:2 1e-06
19 clknet_1_1__leaf_clk_1:3 clknet_1_1__leaf_clk_1:1 0.00338175
*END

*D_NET clknet_0_h1\/gclk5 10.7014
*CONN
*I h1/clkbuf_0_h1\/gclk5:Z O *D CLKBUF_X3
*I h1/clkbuf_4_0__f_h1\/gclk5:A I *D CLKBUF_X3
*I h1/clkbuf_4_1__f_h1\/gclk5:A I *D CLKBUF_X3
*I h1/clkbuf_4_2__f_h1\/gclk5:A I *D CLKBUF_X3
*I h1/clkbuf_4_3__f_h1\/gclk5:A I *D CLKBUF_X3
*I h1/clkbuf_4_4__f_h1\/gclk5:A I *D CLKBUF_X3
*I h1/clkbuf_4_5__f_h1\/gclk5:A I *D CLKBUF_X3
*I h1/clkbuf_4_6__f_h1\/gclk5:A I *D CLKBUF_X3
*I h1/clkbuf_4_7__f_h1\/gclk5:A I *D CLKBUF_X3
*I h1/clkbuf_4_8__f_h1\/gclk5:A I *D CLKBUF_X3
*I h1/clkbuf_4_9__f_h1\/gclk5:A I *D CLKBUF_X3
*I h1/clkbuf_4_10__f_h1\/gclk5:A I *D CLKBUF_X3
*I h1/clkbuf_4_11__f_h1\/gclk5:A I *D CLKBUF_X3
*I h1/clkbuf_4_12__f_h1\/gclk5:A I *D CLKBUF_X3
*I h1/clkbuf_4_13__f_h1\/gclk5:A I *D CLKBUF_X3
*I h1/clkbuf_4_14__f_h1\/gclk5:A I *D CLKBUF_X3
*I h1/clkbuf_4_15__f_h1\/gclk5:A I *D CLKBUF_X3
*CAP
1 clknet_0_h1\/gclk5:0 0.0574535
2 clknet_0_h1\/gclk5:1 0.712467
3 clknet_0_h1\/gclk5:2 0.172652
4 clknet_0_h1\/gclk5:3 0.781452
5 clknet_0_h1\/gclk5:4 0.7142
6 clknet_0_h1\/gclk5:5 0.603618
7 clknet_0_h1\/gclk5:6 0.0927576
8 clknet_0_h1\/gclk5:7 0.570904
9 clknet_0_h1\/gclk5:8 0.595243
10 clknet_0_h1\/gclk5:9 0.00054735
11 clknet_0_h1\/gclk5:10 0.287523
12 clknet_0_h1\/gclk5:11 0.114925
13 clknet_0_h1\/gclk5:12 0.615623
14 clknet_0_h1\/gclk5:13 0.625731
15 clknet_0_h1\/gclk5:14 0.580136
16 clknet_0_h1\/gclk5:15 0.401481
17 clknet_0_h1\/gclk5:16 0.134685
18 clknet_0_h1\/gclk5:17 0.827283
19 clknet_0_h1\/gclk5:18 0.729453
20 clknet_0_h1\/gclk5:19 0.779609
21 clknet_0_h1\/gclk5:20 0.603618
22 clknet_0_h1\/gclk5:21 0.431713
23 clknet_0_h1\/gclk5:22 0.268274
*RES
1 clknet_0_h1\/gclk5:0 clknet_0_h1\/gclk5:21 0.0023649
2 h1/clkbuf_4_10__f_h1\/gclk5:A clknet_0_h1\/gclk5:23 1e-06
3 clknet_0_h1\/gclk5:23 clknet_0_h1\/gclk5:24 1e-06
4 clknet_0_h1\/gclk5:24 clknet_0_h1\/gclk5:25 1e-06
5 clknet_0_h1\/gclk5:25 clknet_0_h1\/gclk5:26 1e-06
6 clknet_0_h1\/gclk5:26 clknet_0_h1\/gclk5:0 1e-06
7 clknet_0_h1\/gclk5:1 clknet_0_h1\/gclk5:3 0.021028
8 h1/clkbuf_4_8__f_h1\/gclk5:A clknet_0_h1\/gclk5:28 1e-06
9 clknet_0_h1\/gclk5:28 clknet_0_h1\/gclk5:29 1e-06
10 clknet_0_h1\/gclk5:29 clknet_0_h1\/gclk5:30 1e-06
11 clknet_0_h1\/gclk5:30 clknet_0_h1\/gclk5:31 1e-06
12 clknet_0_h1\/gclk5:31 clknet_0_h1\/gclk5:1 1e-06
13 h1/clkbuf_4_9__f_h1\/gclk5:A clknet_0_h1\/gclk5:33 1e-06
14 clknet_0_h1\/gclk5:33 clknet_0_h1\/gclk5:34 1e-06
15 clknet_0_h1\/gclk5:34 clknet_0_h1\/gclk5:35 1e-06
16 clknet_0_h1\/gclk5:35 clknet_0_h1\/gclk5:36 1e-06
17 clknet_0_h1\/gclk5:36 clknet_0_h1\/gclk5:3 1e-06
18 clknet_0_h1\/gclk5:2 clknet_0_h1\/gclk5:21 0.00710671
19 h1/clkbuf_4_11__f_h1\/gclk5:A clknet_0_h1\/gclk5:38 1e-06
20 clknet_0_h1\/gclk5:38 clknet_0_h1\/gclk5:39 1e-06
21 clknet_0_h1\/gclk5:39 clknet_0_h1\/gclk5:40 1e-06
22 clknet_0_h1\/gclk5:40 clknet_0_h1\/gclk5:41 1e-06
23 clknet_0_h1\/gclk5:41 clknet_0_h1\/gclk5:2 1e-06
24 clknet_0_h1\/gclk5:3 clknet_0_h1\/gclk5:18 0.0111381
25 clknet_0_h1\/gclk5:4 clknet_0_h1\/gclk5:18 0.00836989
26 h1/clkbuf_4_2__f_h1\/gclk5:A clknet_0_h1\/gclk5:43 1e-06
27 clknet_0_h1\/gclk5:43 clknet_0_h1\/gclk5:44 1e-06
28 clknet_0_h1\/gclk5:44 clknet_0_h1\/gclk5:45 1e-06
29 clknet_0_h1\/gclk5:45 clknet_0_h1\/gclk5:46 1e-06
30 clknet_0_h1\/gclk5:46 clknet_0_h1\/gclk5:4 1e-06
31 clknet_0_h1\/gclk5:5 clknet_0_h1\/gclk5:4 0.021028
32 h1/clkbuf_4_0__f_h1\/gclk5:A clknet_0_h1\/gclk5:48 1e-06
33 clknet_0_h1\/gclk5:48 clknet_0_h1\/gclk5:49 1e-06
34 clknet_0_h1\/gclk5:49 clknet_0_h1\/gclk5:50 1e-06
35 clknet_0_h1\/gclk5:50 clknet_0_h1\/gclk5:51 1e-06
36 clknet_0_h1\/gclk5:51 clknet_0_h1\/gclk5:5 1e-06
37 clknet_0_h1\/gclk5:6 clknet_0_h1\/gclk5:20 0.00381808
38 h1/clkbuf_4_3__f_h1\/gclk5:A clknet_0_h1\/gclk5:53 1e-06
39 clknet_0_h1\/gclk5:53 clknet_0_h1\/gclk5:54 1e-06
40 clknet_0_h1\/gclk5:54 clknet_0_h1\/gclk5:55 1e-06
41 clknet_0_h1\/gclk5:55 clknet_0_h1\/gclk5:56 1e-06
42 clknet_0_h1\/gclk5:56 clknet_0_h1\/gclk5:6 1e-06
43 clknet_0_h1\/gclk5:7 clknet_0_h1\/gclk5:20 0.0172099
44 h1/clkbuf_4_1__f_h1\/gclk5:A clknet_0_h1\/gclk5:58 1e-06
45 clknet_0_h1\/gclk5:58 clknet_0_h1\/gclk5:59 1e-06
46 clknet_0_h1\/gclk5:59 clknet_0_h1\/gclk5:60 1e-06
47 clknet_0_h1\/gclk5:60 clknet_0_h1\/gclk5:61 1e-06
48 clknet_0_h1\/gclk5:61 clknet_0_h1\/gclk5:7 1e-06
49 clknet_0_h1\/gclk5:8 clknet_0_h1\/gclk5:8 1e-06
50 h1/clkbuf_0_h1\/gclk5:Z clknet_0_h1\/gclk5:63 1e-06
51 clknet_0_h1\/gclk5:63 clknet_0_h1\/gclk5:64 1e-06
52 clknet_0_h1\/gclk5:64 clknet_0_h1\/gclk5:65 1e-06
53 clknet_0_h1\/gclk5:65 clknet_0_h1\/gclk5:66 1e-06
54 clknet_0_h1\/gclk5:66 clknet_0_h1\/gclk5:8 1e-06
55 clknet_0_h1\/gclk5:9 clknet_0_h1\/gclk5:22 2.253e-05
56 h1/clkbuf_4_4__f_h1\/gclk5:A clknet_0_h1\/gclk5:68 1e-06
57 clknet_0_h1\/gclk5:68 clknet_0_h1\/gclk5:69 1e-06
58 clknet_0_h1\/gclk5:69 clknet_0_h1\/gclk5:70 1e-06
59 clknet_0_h1\/gclk5:70 clknet_0_h1\/gclk5:71 1e-06
60 clknet_0_h1\/gclk5:71 clknet_0_h1\/gclk5:9 1e-06
61 clknet_0_h1\/gclk5:10 clknet_0_h1\/gclk5:14 0.011835
62 h1/clkbuf_4_14__f_h1\/gclk5:A clknet_0_h1\/gclk5:73 1e-06
63 clknet_0_h1\/gclk5:73 clknet_0_h1\/gclk5:74 1e-06
64 clknet_0_h1\/gclk5:74 clknet_0_h1\/gclk5:75 1e-06
65 clknet_0_h1\/gclk5:75 clknet_0_h1\/gclk5:76 1e-06
66 clknet_0_h1\/gclk5:76 clknet_0_h1\/gclk5:10 1e-06
67 h1/clkbuf_4_15__f_h1\/gclk5:A clknet_0_h1\/gclk5:78 1e-06
68 clknet_0_h1\/gclk5:78 clknet_0_h1\/gclk5:79 1e-06
69 clknet_0_h1\/gclk5:79 clknet_0_h1\/gclk5:80 1e-06
70 clknet_0_h1\/gclk5:80 clknet_0_h1\/gclk5:81 1e-06
71 clknet_0_h1\/gclk5:81 clknet_0_h1\/gclk5:14 1e-06
72 clknet_0_h1\/gclk5:11 clknet_0_h1\/gclk5:22 0.00473055
73 h1/clkbuf_4_5__f_h1\/gclk5:A clknet_0_h1\/gclk5:83 1e-06
74 clknet_0_h1\/gclk5:83 clknet_0_h1\/gclk5:84 1e-06
75 clknet_0_h1\/gclk5:84 clknet_0_h1\/gclk5:85 1e-06
76 clknet_0_h1\/gclk5:85 clknet_0_h1\/gclk5:86 1e-06
77 clknet_0_h1\/gclk5:86 clknet_0_h1\/gclk5:11 1e-06
78 clknet_0_h1\/gclk5:12 clknet_0_h1\/gclk5:17 0.00881449
79 h1/clkbuf_4_6__f_h1\/gclk5:A clknet_0_h1\/gclk5:88 1e-06
80 clknet_0_h1\/gclk5:88 clknet_0_h1\/gclk5:89 1e-06
81 clknet_0_h1\/gclk5:89 clknet_0_h1\/gclk5:90 1e-06
82 clknet_0_h1\/gclk5:90 clknet_0_h1\/gclk5:91 1e-06
83 clknet_0_h1\/gclk5:91 clknet_0_h1\/gclk5:12 1e-06
84 clknet_0_h1\/gclk5:13 clknet_0_h1\/gclk5:17 0.0112545
85 h1/clkbuf_4_12__f_h1\/gclk5:A clknet_0_h1\/gclk5:93 1e-06
86 clknet_0_h1\/gclk5:93 clknet_0_h1\/gclk5:94 1e-06
87 clknet_0_h1\/gclk5:94 clknet_0_h1\/gclk5:95 1e-06
88 clknet_0_h1\/gclk5:95 clknet_0_h1\/gclk5:96 1e-06
89 clknet_0_h1\/gclk5:96 clknet_0_h1\/gclk5:13 1e-06
90 clknet_0_h1\/gclk5:14 clknet_0_h1\/gclk5:19 0.0120445
91 clknet_0_h1\/gclk5:15 clknet_0_h1\/gclk5:12 0.0165258
92 h1/clkbuf_4_7__f_h1\/gclk5:A clknet_0_h1\/gclk5:98 1e-06
93 clknet_0_h1\/gclk5:98 clknet_0_h1\/gclk5:99 1e-06
94 clknet_0_h1\/gclk5:99 clknet_0_h1\/gclk5:100 1e-06
95 clknet_0_h1\/gclk5:100 clknet_0_h1\/gclk5:101 1e-06
96 clknet_0_h1\/gclk5:101 clknet_0_h1\/gclk5:15 1e-06
97 clknet_0_h1\/gclk5:16 clknet_0_h1\/gclk5:19 0.00554388
98 h1/clkbuf_4_13__f_h1\/gclk5:A clknet_0_h1\/gclk5:103 1e-06
99 clknet_0_h1\/gclk5:103 clknet_0_h1\/gclk5:104 1e-06
100 clknet_0_h1\/gclk5:104 clknet_0_h1\/gclk5:105 1e-06
101 clknet_0_h1\/gclk5:105 clknet_0_h1\/gclk5:106 1e-06
102 clknet_0_h1\/gclk5:106 clknet_0_h1\/gclk5:16 1e-06
103 clknet_0_h1\/gclk5:17 clknet_0_h1\/gclk5:8 0.0139836
104 clknet_0_h1\/gclk5:18 clknet_0_h1\/gclk5:8 0.0105178
105 clknet_0_h1\/gclk5:19 clknet_0_h1\/gclk5:13 0.0145018
106 clknet_0_h1\/gclk5:20 clknet_0_h1\/gclk5:5 0.00381808
107 clknet_0_h1\/gclk5:21 clknet_0_h1\/gclk5:1 0.00829855
108 clknet_0_h1\/gclk5:22 clknet_0_h1\/gclk5:7 0.00628963
*END

*D_NET clknet_4_0__leaf_h1\/gclk5 1.1905
*CONN
*I h1/ff121:CK I *D DFF_X1
*I h1/ff16:CK I *D DFF_X1
*I h1/ff29:CK I *D DFF_X1
*I h1/ff75:CK I *D DFF_X1
*I h1/ff86:CK I *D DFF_X1
*I h1/clkbuf_4_0__f_h1\/gclk5:Z O *D CLKBUF_X3
*I clkload0:A I *D INV_X8
*CAP
1 clknet_4_0__leaf_h1\/gclk5:0 0.117174
2 clknet_4_0__leaf_h1\/gclk5:1 0.137092
3 clknet_4_0__leaf_h1\/gclk5:2 0.164225
4 clknet_4_0__leaf_h1\/gclk5:3 0.276927
5 clknet_4_0__leaf_h1\/gclk5:4 9.395e-05
6 clknet_4_0__leaf_h1\/gclk5:5 0.0590006
7 clknet_4_0__leaf_h1\/gclk5:6 0.172906
8 clknet_4_0__leaf_h1\/gclk5:7 0.234837
9 clknet_4_0__leaf_h1\/gclk5:8 0.0282414
*RES
1 clknet_4_0__leaf_h1\/gclk5:0 clknet_4_0__leaf_h1\/gclk5:1 0.0111437
2 h1/ff121:CK clknet_4_0__leaf_h1\/gclk5:9 1e-06
3 clknet_4_0__leaf_h1\/gclk5:9 clknet_4_0__leaf_h1\/gclk5:0 1e-06
4 clkload0:A clknet_4_0__leaf_h1\/gclk5:11 1e-06
5 clknet_4_0__leaf_h1\/gclk5:11 clknet_4_0__leaf_h1\/gclk5:1 1e-06
6 clknet_4_0__leaf_h1\/gclk5:1 clknet_4_0__leaf_h1\/gclk5:8 0.00189422
7 clknet_4_0__leaf_h1\/gclk5:2 clknet_4_0__leaf_h1\/gclk5:3 0.0156184
8 h1/ff16:CK clknet_4_0__leaf_h1\/gclk5:13 1e-06
9 clknet_4_0__leaf_h1\/gclk5:13 clknet_4_0__leaf_h1\/gclk5:2 1e-06
10 h1/ff29:CK clknet_4_0__leaf_h1\/gclk5:15 1e-06
11 clknet_4_0__leaf_h1\/gclk5:15 clknet_4_0__leaf_h1\/gclk5:3 1e-06
12 clknet_4_0__leaf_h1\/gclk5:3 clknet_4_0__leaf_h1\/gclk5:7 0.0107184
13 clknet_4_0__leaf_h1\/gclk5:4 clknet_4_0__leaf_h1\/gclk5:4 1e-06
14 h1/clkbuf_4_0__f_h1\/gclk5:Z clknet_4_0__leaf_h1\/gclk5:17 1e-06
15 clknet_4_0__leaf_h1\/gclk5:17 clknet_4_0__leaf_h1\/gclk5:4 1e-06
16 clknet_4_0__leaf_h1\/gclk5:5 clknet_4_0__leaf_h1\/gclk5:6 0.00561118
17 h1/ff75:CK clknet_4_0__leaf_h1\/gclk5:19 1e-06
18 clknet_4_0__leaf_h1\/gclk5:19 clknet_4_0__leaf_h1\/gclk5:5 1e-06
19 h1/ff86:CK clknet_4_0__leaf_h1\/gclk5:21 1e-06
20 clknet_4_0__leaf_h1\/gclk5:21 clknet_4_0__leaf_h1\/gclk5:6 1e-06
21 clknet_4_0__leaf_h1\/gclk5:6 clknet_4_0__leaf_h1\/gclk5:7 0.0108328
22 clknet_4_0__leaf_h1\/gclk5:7 clknet_4_0__leaf_h1\/gclk5:8 0.000782706
23 clknet_4_0__leaf_h1\/gclk5:8 clknet_4_0__leaf_h1\/gclk5:4 8.935e-06
*END

*D_NET clknet_4_1__leaf_h1\/gclk5 1.41301
*CONN
*I h1/ff111:CK I *D DFF_X1
*I h1/ff130:CK I *D DFF_X1
*I h1/ff20:CK I *D DFF_X1
*I h1/ff39:CK I *D DFF_X1
*I h1/ff58:CK I *D DFF_X1
*I h1/ff99:CK I *D DFF_X1
*I h1/clkbuf_4_1__f_h1\/gclk5:Z O *D CLKBUF_X3
*I clkload1:A I *D INV_X4
*CAP
1 clknet_4_1__leaf_h1\/gclk5:0 0.210448
2 clknet_4_1__leaf_h1\/gclk5:1 0.269449
3 clknet_4_1__leaf_h1\/gclk5:2 0.105224
4 clknet_4_1__leaf_h1\/gclk5:3 0.120143
5 clknet_4_1__leaf_h1\/gclk5:4 0.0939312
6 clknet_4_1__leaf_h1\/gclk5:5 0.257912
7 clknet_4_1__leaf_h1\/gclk5:6 0.296901
8 clknet_4_1__leaf_h1\/gclk5:7 0.0590006
*RES
1 clknet_4_1__leaf_h1\/gclk5:0 clknet_4_1__leaf_h1\/gclk5:1 0.0200144
2 h1/ff39:CK clknet_4_1__leaf_h1\/gclk5:8 1e-06
3 clknet_4_1__leaf_h1\/gclk5:8 clknet_4_1__leaf_h1\/gclk5:0 1e-06
4 h1/ff130:CK clknet_4_1__leaf_h1\/gclk5:10 1e-06
5 clknet_4_1__leaf_h1\/gclk5:10 clknet_4_1__leaf_h1\/gclk5:1 1e-06
6 clknet_4_1__leaf_h1\/gclk5:1 clknet_4_1__leaf_h1\/gclk5:2 0.00561118
7 h1/ff20:CK clknet_4_1__leaf_h1\/gclk5:12 1e-06
8 clknet_4_1__leaf_h1\/gclk5:12 clknet_4_1__leaf_h1\/gclk5:2 1e-06
9 clknet_4_1__leaf_h1\/gclk5:2 clknet_4_1__leaf_h1\/gclk5:3 0.00439602
10 h1/ff111:CK clknet_4_1__leaf_h1\/gclk5:14 1e-06
11 clknet_4_1__leaf_h1\/gclk5:14 clknet_4_1__leaf_h1\/gclk5:3 1e-06
12 clknet_4_1__leaf_h1\/gclk5:3 clknet_4_1__leaf_h1\/gclk5:4 0.00703006
13 clkload1:A clknet_4_1__leaf_h1\/gclk5:16 1e-06
14 clknet_4_1__leaf_h1\/gclk5:16 clknet_4_1__leaf_h1\/gclk5:4 1e-06
15 clknet_4_1__leaf_h1\/gclk5:4 clknet_4_1__leaf_h1\/gclk5:5 0.00190316
16 h1/clkbuf_4_1__f_h1\/gclk5:Z clknet_4_1__leaf_h1\/gclk5:18 1e-06
17 clknet_4_1__leaf_h1\/gclk5:18 clknet_4_1__leaf_h1\/gclk5:5 1e-06
18 clknet_4_1__leaf_h1\/gclk5:5 clknet_4_1__leaf_h1\/gclk5:5 1e-06
19 clknet_4_1__leaf_h1\/gclk5:6 clknet_4_1__leaf_h1\/gclk5:5 0.0226252
20 h1/ff58:CK clknet_4_1__leaf_h1\/gclk5:20 1e-06
21 clknet_4_1__leaf_h1\/gclk5:20 clknet_4_1__leaf_h1\/gclk5:6 1e-06
22 clknet_4_1__leaf_h1\/gclk5:7 clknet_4_1__leaf_h1\/gclk5:6 0.00561118
23 h1/ff99:CK clknet_4_1__leaf_h1\/gclk5:22 1e-06
24 clknet_4_1__leaf_h1\/gclk5:22 clknet_4_1__leaf_h1\/gclk5:7 1e-06
*END

*D_NET clknet_4_2__leaf_h1\/gclk5 1.08681
*CONN
*I h1/ff11:CK I *D DFF_X1
*I h1/ff123:CK I *D DFF_X1
*I h1/ff31:CK I *D DFF_X1
*I h1/ff40:CK I *D DFF_X1
*I h1/ff48:CK I *D DFF_X1
*I h1/ff63:CK I *D DFF_X1
*I h1/clkbuf_4_2__f_h1\/gclk5:Z O *D CLKBUF_X3
*I clkload2:A I *D INV_X4
*CAP
1 clknet_4_2__leaf_h1\/gclk5:0 0.0590006
2 clknet_4_2__leaf_h1\/gclk5:1 0.141958
3 clknet_4_2__leaf_h1\/gclk5:2 0.104191
4 clknet_4_2__leaf_h1\/gclk5:3 0.0269637
5 clknet_4_2__leaf_h1\/gclk5:4 9.395e-05
6 clknet_4_2__leaf_h1\/gclk5:5 0.2112
7 clknet_4_2__leaf_h1\/gclk5:6 0.0590006
8 clknet_4_2__leaf_h1\/gclk5:7 0.231869
9 clknet_4_2__leaf_h1\/gclk5:8 0.194195
10 clknet_4_2__leaf_h1\/gclk5:9 0.0583429
*RES
1 clknet_4_2__leaf_h1\/gclk5:0 clknet_4_2__leaf_h1\/gclk5:1 0.00561118
2 h1/ff11:CK clknet_4_2__leaf_h1\/gclk5:10 1e-06
3 clknet_4_2__leaf_h1\/gclk5:10 clknet_4_2__leaf_h1\/gclk5:0 1e-06
4 h1/ff123:CK clknet_4_2__leaf_h1\/gclk5:12 1e-06
5 clknet_4_2__leaf_h1\/gclk5:12 clknet_4_2__leaf_h1\/gclk5:1 1e-06
6 clknet_4_2__leaf_h1\/gclk5:1 clknet_4_2__leaf_h1\/gclk5:8 0.00788961
7 clknet_4_2__leaf_h1\/gclk5:2 clknet_4_2__leaf_h1\/gclk5:8 0.00990891
8 h1/ff48:CK clknet_4_2__leaf_h1\/gclk5:14 1e-06
9 clknet_4_2__leaf_h1\/gclk5:14 clknet_4_2__leaf_h1\/gclk5:2 1e-06
10 clknet_4_2__leaf_h1\/gclk5:3 clknet_4_2__leaf_h1\/gclk5:9 0.00189422
11 clkload2:A clknet_4_2__leaf_h1\/gclk5:16 1e-06
12 clknet_4_2__leaf_h1\/gclk5:16 clknet_4_2__leaf_h1\/gclk5:3 1e-06
13 clknet_4_2__leaf_h1\/gclk5:4 clknet_4_2__leaf_h1\/gclk5:4 1e-06
14 h1/clkbuf_4_2__f_h1\/gclk5:Z clknet_4_2__leaf_h1\/gclk5:18 1e-06
15 clknet_4_2__leaf_h1\/gclk5:18 clknet_4_2__leaf_h1\/gclk5:4 1e-06
16 clknet_4_2__leaf_h1\/gclk5:5 clknet_4_2__leaf_h1\/gclk5:9 0.00364548
17 h1/ff31:CK clknet_4_2__leaf_h1\/gclk5:20 1e-06
18 clknet_4_2__leaf_h1\/gclk5:20 clknet_4_2__leaf_h1\/gclk5:5 1e-06
19 clknet_4_2__leaf_h1\/gclk5:6 clknet_4_2__leaf_h1\/gclk5:7 0.00561118
20 h1/ff40:CK clknet_4_2__leaf_h1\/gclk5:22 1e-06
21 clknet_4_2__leaf_h1\/gclk5:22 clknet_4_2__leaf_h1\/gclk5:6 1e-06
22 h1/ff63:CK clknet_4_2__leaf_h1\/gclk5:24 1e-06
23 clknet_4_2__leaf_h1\/gclk5:24 clknet_4_2__leaf_h1\/gclk5:7 1e-06
24 clknet_4_2__leaf_h1\/gclk5:7 clknet_4_2__leaf_h1\/gclk5:5 0.0164404
25 clknet_4_2__leaf_h1\/gclk5:8 clknet_4_2__leaf_h1\/gclk5:3 0.000670125
26 clknet_4_2__leaf_h1\/gclk5:9 clknet_4_2__leaf_h1\/gclk5:4 8.935e-06
*END

*D_NET clknet_4_3__leaf_h1\/gclk5 1.84134
*CONN
*I h1/ff114:CK I *D DFF_X1
*I h1/ff118:CK I *D DFF_X1
*I h1/ff13:CK I *D DFF_X1
*I h1/ff26:CK I *D DFF_X1
*I h1/ff36:CK I *D DFF_X1
*I h1/ff42:CK I *D DFF_X1
*I h1/ff44:CK I *D DFF_X1
*I h1/ff77:CK I *D DFF_X1
*I h1/ff79:CK I *D DFF_X1
*I h1/clkbuf_4_3__f_h1\/gclk5:Z O *D CLKBUF_X3
*I clkload3:A I *D INV_X4
*CAP
1 clknet_4_3__leaf_h1\/gclk5:0 0.0590006
2 clknet_4_3__leaf_h1\/gclk5:1 0.180384
3 clknet_4_3__leaf_h1\/gclk5:2 0.252068
4 clknet_4_3__leaf_h1\/gclk5:3 0.105224
5 clknet_4_3__leaf_h1\/gclk5:4 0.0590006
6 clknet_4_3__leaf_h1\/gclk5:5 9.395e-05
7 clknet_4_3__leaf_h1\/gclk5:6 0.038294
8 clknet_4_3__leaf_h1\/gclk5:7 0.106596
9 clknet_4_3__leaf_h1\/gclk5:8 0.164225
10 clknet_4_3__leaf_h1\/gclk5:9 0.105224
11 clknet_4_3__leaf_h1\/gclk5:10 0.300396
12 clknet_4_3__leaf_h1\/gclk5:11 0.366367
13 clknet_4_3__leaf_h1\/gclk5:12 0.104472
*RES
1 clknet_4_3__leaf_h1\/gclk5:0 clknet_4_3__leaf_h1\/gclk5:1 0.00561118
2 h1/ff42:CK clknet_4_3__leaf_h1\/gclk5:13 1e-06
3 clknet_4_3__leaf_h1\/gclk5:13 clknet_4_3__leaf_h1\/gclk5:0 1e-06
4 h1/ff13:CK clknet_4_3__leaf_h1\/gclk5:15 1e-06
5 clknet_4_3__leaf_h1\/gclk5:15 clknet_4_3__leaf_h1\/gclk5:1 1e-06
6 clknet_4_3__leaf_h1\/gclk5:1 clknet_4_3__leaf_h1\/gclk5:2 0.011544
7 h1/ff77:CK clknet_4_3__leaf_h1\/gclk5:17 1e-06
8 clknet_4_3__leaf_h1\/gclk5:17 clknet_4_3__leaf_h1\/gclk5:2 1e-06
9 clknet_4_3__leaf_h1\/gclk5:2 clknet_4_3__leaf_h1\/gclk5:12 0.00803257
10 clknet_4_3__leaf_h1\/gclk5:3 clknet_4_3__leaf_h1\/gclk5:2 0.00439602
11 h1/ff36:CK clknet_4_3__leaf_h1\/gclk5:19 1e-06
12 clknet_4_3__leaf_h1\/gclk5:19 clknet_4_3__leaf_h1\/gclk5:3 1e-06
13 clknet_4_3__leaf_h1\/gclk5:4 clknet_4_3__leaf_h1\/gclk5:3 0.00561118
14 h1/ff114:CK clknet_4_3__leaf_h1\/gclk5:21 1e-06
15 clknet_4_3__leaf_h1\/gclk5:21 clknet_4_3__leaf_h1\/gclk5:4 1e-06
16 clknet_4_3__leaf_h1\/gclk5:5 clknet_4_3__leaf_h1\/gclk5:12 8.935e-06
17 clkload3:A clknet_4_3__leaf_h1\/gclk5:23 1e-06
18 clknet_4_3__leaf_h1\/gclk5:23 clknet_4_3__leaf_h1\/gclk5:5 1e-06
19 clknet_4_3__leaf_h1\/gclk5:6 clknet_4_3__leaf_h1\/gclk5:6 1e-06
20 h1/clkbuf_4_3__f_h1\/gclk5:Z clknet_4_3__leaf_h1\/gclk5:25 1e-06
21 clknet_4_3__leaf_h1\/gclk5:25 clknet_4_3__leaf_h1\/gclk5:6 1e-06
22 clknet_4_3__leaf_h1\/gclk5:7 clknet_4_3__leaf_h1\/gclk5:11 0.00452647
23 h1/ff26:CK clknet_4_3__leaf_h1\/gclk5:27 1e-06
24 clknet_4_3__leaf_h1\/gclk5:27 clknet_4_3__leaf_h1\/gclk5:7 1e-06
25 clknet_4_3__leaf_h1\/gclk5:8 clknet_4_3__leaf_h1\/gclk5:7 0.00561118
26 h1/ff44:CK clknet_4_3__leaf_h1\/gclk5:29 1e-06
27 clknet_4_3__leaf_h1\/gclk5:29 clknet_4_3__leaf_h1\/gclk5:8 1e-06
28 clknet_4_3__leaf_h1\/gclk5:9 clknet_4_3__leaf_h1\/gclk5:8 0.0100072
29 h1/ff118:CK clknet_4_3__leaf_h1\/gclk5:31 1e-06
30 clknet_4_3__leaf_h1\/gclk5:31 clknet_4_3__leaf_h1\/gclk5:9 1e-06
31 clknet_4_3__leaf_h1\/gclk5:10 clknet_4_3__leaf_h1\/gclk5:11 0.0285688
32 h1/ff79:CK clknet_4_3__leaf_h1\/gclk5:33 1e-06
33 clknet_4_3__leaf_h1\/gclk5:33 clknet_4_3__leaf_h1\/gclk5:10 1e-06
34 clknet_4_3__leaf_h1\/gclk5:11 clknet_4_3__leaf_h1\/gclk5:6 0.00174769
35 clknet_4_3__leaf_h1\/gclk5:12 clknet_4_3__leaf_h1\/gclk5:6 0.00189422
*END

*D_NET clknet_4_4__leaf_h1\/gclk5 1.17719
*CONN
*I h1/ff120:CK I *D DFF_X1
*I h1/ff32:CK I *D DFF_X1
*I h1/ff51:CK I *D DFF_X1
*I h1/ff69:CK I *D DFF_X1
*I h1/ff70:CK I *D DFF_X1
*I h1/ff8:CK I *D DFF_X1
*I h1/ff87:CK I *D DFF_X1
*I h1/clkbuf_4_4__f_h1\/gclk5:Z O *D CLKBUF_X3
*I clkload4:A I *D INV_X4
*CAP
1 clknet_4_4__leaf_h1\/gclk5:0 0.151447
2 clknet_4_4__leaf_h1\/gclk5:1 0.164018
3 clknet_4_4__leaf_h1\/gclk5:2 0.0926535
4 clknet_4_4__leaf_h1\/gclk5:3 0.0462234
5 clknet_4_4__leaf_h1\/gclk5:4 0.0785234
6 clknet_4_4__leaf_h1\/gclk5:5 0.0629653
7 clknet_4_4__leaf_h1\/gclk5:6 0.105224
8 clknet_4_4__leaf_h1\/gclk5:7 0.164112
9 clknet_4_4__leaf_h1\/gclk5:8 0.0463361
10 clknet_4_4__leaf_h1\/gclk5:9 0.148178
11 clknet_4_4__leaf_h1\/gclk5:10 0.117513
*RES
1 clknet_4_4__leaf_h1\/gclk5:0 clknet_4_4__leaf_h1\/gclk5:1 0.0144032
2 h1/ff70:CK clknet_4_4__leaf_h1\/gclk5:11 1e-06
3 clknet_4_4__leaf_h1\/gclk5:11 clknet_4_4__leaf_h1\/gclk5:0 1e-06
4 h1/ff8:CK clknet_4_4__leaf_h1\/gclk5:13 1e-06
5 clknet_4_4__leaf_h1\/gclk5:13 clknet_4_4__leaf_h1\/gclk5:1 1e-06
6 clknet_4_4__leaf_h1\/gclk5:1 clknet_4_4__leaf_h1\/gclk5:10 0.0011955
7 clknet_4_4__leaf_h1\/gclk5:2 clknet_4_4__leaf_h1\/gclk5:10 0.00441568
8 h1/ff51:CK clknet_4_4__leaf_h1\/gclk5:15 1e-06
9 clknet_4_4__leaf_h1\/gclk5:15 clknet_4_4__leaf_h1\/gclk5:2 1e-06
10 clknet_4_4__leaf_h1\/gclk5:3 clknet_4_4__leaf_h1\/gclk5:2 0.00439602
11 h1/ff87:CK clknet_4_4__leaf_h1\/gclk5:17 1e-06
12 clknet_4_4__leaf_h1\/gclk5:17 clknet_4_4__leaf_h1\/gclk5:3 1e-06
13 clknet_4_4__leaf_h1\/gclk5:4 clknet_4_4__leaf_h1\/gclk5:5 0.00190316
14 clkload4:A clknet_4_4__leaf_h1\/gclk5:19 1e-06
15 clknet_4_4__leaf_h1\/gclk5:19 clknet_4_4__leaf_h1\/gclk5:4 1e-06
16 h1/clkbuf_4_4__f_h1\/gclk5:Z clknet_4_4__leaf_h1\/gclk5:21 1e-06
17 clknet_4_4__leaf_h1\/gclk5:21 clknet_4_4__leaf_h1\/gclk5:5 1e-06
18 clknet_4_4__leaf_h1\/gclk5:5 clknet_4_4__leaf_h1\/gclk5:5 1e-06
19 clknet_4_4__leaf_h1\/gclk5:6 clknet_4_4__leaf_h1\/gclk5:7 0.0100072
20 h1/ff69:CK clknet_4_4__leaf_h1\/gclk5:23 1e-06
21 clknet_4_4__leaf_h1\/gclk5:23 clknet_4_4__leaf_h1\/gclk5:6 1e-06
22 h1/ff32:CK clknet_4_4__leaf_h1\/gclk5:25 1e-06
23 clknet_4_4__leaf_h1\/gclk5:25 clknet_4_4__leaf_h1\/gclk5:7 1e-06
24 clknet_4_4__leaf_h1\/gclk5:7 clknet_4_4__leaf_h1\/gclk5:9 0.00560046
25 clknet_4_4__leaf_h1\/gclk5:8 clknet_4_4__leaf_h1\/gclk5:9 0.00440674
26 h1/ff120:CK clknet_4_4__leaf_h1\/gclk5:27 1e-06
27 clknet_4_4__leaf_h1\/gclk5:27 clknet_4_4__leaf_h1\/gclk5:8 1e-06
28 clknet_4_4__leaf_h1\/gclk5:9 clknet_4_4__leaf_h1\/gclk5:5 0.00408508
29 clknet_4_4__leaf_h1\/gclk5:10 clknet_4_4__leaf_h1\/gclk5:4 0.00556472
*END

*D_NET clknet_4_5__leaf_h1\/gclk5 1.95886
*CONN
*I h1/ff104:CK I *D DFF_X1
*I h1/ff131:CK I *D DFF_X1
*I h1/ff2:CK I *D DFF_X1
*I h1/ff21:CK I *D DFF_X1
*I h1/ff24:CK I *D DFF_X1
*I h1/ff3:CK I *D DFF_X1
*I h1/ff55:CK I *D DFF_X1
*I h1/ff66:CK I *D DFF_X1
*I h1/ff94:CK I *D DFF_X1
*I h1/clkbuf_4_5__f_h1\/gclk5:Z O *D CLKBUF_X3
*I clkload5:A I *D INV_X4
*CAP
1 clknet_4_5__leaf_h1\/gclk5:0 0.167607
2 clknet_4_5__leaf_h1\/gclk5:1 0.180741
3 clknet_4_5__leaf_h1\/gclk5:2 0.197314
4 clknet_4_5__leaf_h1\/gclk5:3 0.164225
5 clknet_4_5__leaf_h1\/gclk5:4 0.105224
6 clknet_4_5__leaf_h1\/gclk5:5 0.0462234
7 clknet_4_5__leaf_h1\/gclk5:6 0.0754982
8 clknet_4_5__leaf_h1\/gclk5:7 0.0659905
9 clknet_4_5__leaf_h1\/gclk5:8 0.0590006
10 clknet_4_5__leaf_h1\/gclk5:9 0.223676
11 clknet_4_5__leaf_h1\/gclk5:10 0.150996
12 clknet_4_5__leaf_h1\/gclk5:11 0.361651
13 clknet_4_5__leaf_h1\/gclk5:12 0.160711
*RES
1 clknet_4_5__leaf_h1\/gclk5:0 clknet_4_5__leaf_h1\/gclk5:1 0.01594
2 h1/ff55:CK clknet_4_5__leaf_h1\/gclk5:13 1e-06
3 clknet_4_5__leaf_h1\/gclk5:13 clknet_4_5__leaf_h1\/gclk5:0 1e-06
4 h1/ff2:CK clknet_4_5__leaf_h1\/gclk5:15 1e-06
5 clknet_4_5__leaf_h1\/gclk5:15 clknet_4_5__leaf_h1\/gclk5:1 1e-06
6 clknet_4_5__leaf_h1\/gclk5:1 clknet_4_5__leaf_h1\/gclk5:12 0.00124911
7 clknet_4_5__leaf_h1\/gclk5:2 clknet_4_5__leaf_h1\/gclk5:12 0.00875809
8 h1/ff66:CK clknet_4_5__leaf_h1\/gclk5:17 1e-06
9 clknet_4_5__leaf_h1\/gclk5:17 clknet_4_5__leaf_h1\/gclk5:2 1e-06
10 clknet_4_5__leaf_h1\/gclk5:3 clknet_4_5__leaf_h1\/gclk5:2 0.0100072
11 h1/ff3:CK clknet_4_5__leaf_h1\/gclk5:19 1e-06
12 clknet_4_5__leaf_h1\/gclk5:19 clknet_4_5__leaf_h1\/gclk5:3 1e-06
13 clknet_4_5__leaf_h1\/gclk5:4 clknet_4_5__leaf_h1\/gclk5:3 0.00561118
14 h1/ff94:CK clknet_4_5__leaf_h1\/gclk5:21 1e-06
15 clknet_4_5__leaf_h1\/gclk5:21 clknet_4_5__leaf_h1\/gclk5:4 1e-06
16 clknet_4_5__leaf_h1\/gclk5:5 clknet_4_5__leaf_h1\/gclk5:4 0.00439602
17 h1/ff24:CK clknet_4_5__leaf_h1\/gclk5:23 1e-06
18 clknet_4_5__leaf_h1\/gclk5:23 clknet_4_5__leaf_h1\/gclk5:5 1e-06
19 clknet_4_5__leaf_h1\/gclk5:6 clknet_4_5__leaf_h1\/gclk5:7 0.00190316
20 clkload5:A clknet_4_5__leaf_h1\/gclk5:25 1e-06
21 clknet_4_5__leaf_h1\/gclk5:25 clknet_4_5__leaf_h1\/gclk5:6 1e-06
22 h1/clkbuf_4_5__f_h1\/gclk5:Z clknet_4_5__leaf_h1\/gclk5:27 1e-06
23 clknet_4_5__leaf_h1\/gclk5:27 clknet_4_5__leaf_h1\/gclk5:7 1e-06