*SPEF "ieee 1481-1999"
*DESIGN "multi_sink"
*DATE "11:11:11 Fri 11 11, 1111"
*VENDOR "The OpenROAD Project"
*PROGRAM "OpenROAD"
*VERSION "1.0"
*DESIGN_FLOW "NAME_SCOPE LOCAL" "PIN_CAP NONE"
*DIVIDER /
*DELIMITER :
*BUS_DELIMITER []
*T_UNIT 1 NS
*C_UNIT 1 FF
*R_UNIT 1 KOHM
*L_UNIT 1 HENRY

*PORTS
clk I

*D_NET clk 1.73565
*CONN
*P clk I
*I clkbuf_0_clk:A I *D CLKBUF_X3
*CAP
1 clk:0 0.867823
2 clk:1 0.867823
*RES
1 clk:0 clk:0 1e-06
2 clk clk:2 1e-06
3 clk:2 clk:3 1e-06
4 clk:3 clk:4 1e-06
5 clk:4 clk:0 1e-06
6 clk:1 clk:0 0.0357213
7 clkbuf_0_clk:A clk:6 1e-06
8 clk:6 clk:7 1e-06
9 clk:7 clk:8 1e-06
10 clk:8 clk:9 1e-06
11 clk:9 clk:1 1e-06
*END

*D_NET gclk1 0.16457
*CONN
*I gclk1:GCK O *D CLKGATE_X1
*I clkbuf_0_gclk1:A I *D CLKBUF_X3
*CAP
1 gclk1:0 0.0822849
2 gclk1:1 0.0822849
*RES
1 gclk1:0 gclk1:1 0.00338701
2 clkbuf_0_gclk1:A gclk1:2 1e-06
3 gclk1:2 gclk1:3 1e-06
4 gclk1:3 gclk1:4 1e-06
5 gclk1:4 gclk1:5 1e-06
6 gclk1:5 gclk1:0 1e-06
7 gclk1:GCK gclk1:7 1e-06
8 gclk1:7 gclk1:8 1e-06
9 gclk1:8 gclk1:9 1e-06
10 gclk1:9 gclk1:10 1e-06
11 gclk1:10 gclk1:1 1e-06
12 gclk1:1 gclk1:1 1e-06
*END

*D_NET gclk3 0.16457
*CONN
*I gclk3:GCK O *D CLKGATE_X1
*I clkbuf_0_gclk3:A I *D CLKBUF_X3
*CAP
1 gclk3:0 0.0822849
2 gclk3:1 0.0822849
*RES
1 gclk3:0 gclk3:1 0.00338701
2 clkbuf_0_gclk3:A gclk3:2 1e-06
3 gclk3:2 gclk3:3 1e-06
4 gclk3:3 gclk3:4 1e-06
5 gclk3:4 gclk3:5 1e-06
6 gclk3:5 gclk3:0 1e-06
7 gclk3:GCK gclk3:7 1e-06
8 gclk3:7 gclk3:8 1e-06
9 gclk3:8 gclk3:9 1e-06
10 gclk3:9 gclk3:10 1e-06
11 gclk3:10 gclk3:1 1e-06
12 gclk3:1 gclk3:1 1e-06
*END

*D_NET gclk4 0.661673
*CONN
*I gclk4:GCK O *D CLKGATE_X1
*I clkbuf_0_gclk4:A I *D CLKBUF_X3
*I delaybuf_0_core:A I *D CLKBUF_X3
*CAP
1 gclk4:0 0.062179
2 gclk4:1 0.330837
3 gclk4:2 0.268658
*RES
1 gclk4:0 gclk4:1 0.00255941
2 delaybuf_0_core:A gclk4:3 1e-06
3 gclk4:3 gclk4:4 1e-06
4 gclk4:4 gclk4:5 1e-06
5 gclk4:5 gclk4:6 1e-06
6 gclk4:6 gclk4:0 1e-06
7 gclk4:GCK gclk4:8 1e-06
8 gclk4:8 gclk4:9 1e-06
9 gclk4:9 gclk4:10 1e-06
10 gclk4:10 gclk4:11 1e-06
11 gclk4:11 gclk4:1 1e-06
12 gclk4:1 gclk4:1 1e-06
13 gclk4:2 gclk4:1 0.0110585
14 clkbuf_0_gclk4:A gclk4:13 1e-06
15 gclk4:13 gclk4:14 1e-06
16 gclk4:14 gclk4:15 1e-06
17 gclk4:15 gclk4:16 1e-06
18 gclk4:16 gclk4:2 1e-06
*END

*D_NET h1/gclk2 0.16457
*CONN
*I h1/gclk2:GCK O *D CLKGATE_X1
*I h1/clkbuf_0_h1\/gclk2:A I *D CLKBUF_X3
*CAP
1 h1/gclk2:0 0.0822849
2 h1/gclk2:1 0.0822849
*RES
1 h1/gclk2:0 h1/gclk2:1 0.00338701
2 h1/clkbuf_0_h1\/gclk2:A h1/gclk2:2 1e-06
3 h1/gclk2:2 h1/gclk2:3 1e-06
4 h1/gclk2:3 h1/gclk2:4 1e-06
5 h1/gclk2:4 h1/gclk2:5 1e-06
6 h1/gclk2:5 h1/gclk2:0 1e-06
7 h1/gclk2:GCK h1/gclk2:7 1e-06
8 h1/gclk2:7 h1/gclk2:8 1e-06
9 h1/gclk2:8 h1/gclk2:9 1e-06
10 h1/gclk2:9 h1/gclk2:10 1e-06
11 h1/gclk2:10 h1/gclk2:1 1e-06
12 h1/gclk2:1 h1/gclk2:1 1e-06
*END

*D_NET h1/gclk5 0.21748
*CONN
*I h1/gclk5:GCK O *D CLKGATE_X1
*I h1/clkbuf_0_h1\/gclk5:A I *D CLKBUF_X3
*CAP
1 h1/gclk5:0 0.10874
2 h1/gclk5:1 0.10874
*RES
1 h1/gclk5:0 h1/gclk5:1 0.00447596
2 h1/clkbuf_0_h1\/gclk5:A h1/gclk5:2 1e-06
3 h1/gclk5:2 h1/gclk5:3 1e-06
4 h1/gclk5:3 h1/gclk5:4 1e-06
5 h1/gclk5:4 h1/gclk5:5 1e-06
6 h1/gclk5:5 h1/gclk5:0 1e-06
7 h1/gclk5:GCK h1/gclk5:7 1e-06
8 h1/gclk5:7 h1/gclk5:8 1e-06
9 h1/gclk5:8 h1/gclk5:9 1e-06
10 h1/gclk5:9 h1/gclk5:10 1e-06
11 h1/gclk5:10 h1/gclk5:1 1e-06
12 h1/gclk5:1 h1/gclk5:1 1e-06
*END

*D_NET gclk4_regs 0.038132
*CONN
*I clkbuf_regs_0_core:Z O *D CLKBUF_X3
*I clkbuf_0_gclk4_regs:A I *D CLKBUF_X3
*CAP
1 gclk4_regs:0 0.019066
2 gclk4_regs:1 0.019066
*RES
1 gclk4_regs:0 gclk4_regs:1 0.000784795
2 clkbuf_0_gclk4_regs:A gclk4_regs:2 1e-06
3 gclk4_regs:2 gclk4_regs:3 1e-06
4 gclk4_regs:3 gclk4_regs:4 1e-06
5 gclk4_regs:4 gclk4_regs:5 1e-06
6 gclk4_regs:5 gclk4_regs:0 1e-06
7 clkbuf_regs_0_core:Z gclk4_regs:7 1e-06
8 gclk4_regs:7 gclk4_regs:8 1e-06
9 gclk4_regs:8 gclk4_regs:9 1e-06
10 gclk4_regs:9 gclk4_regs:10 1e-06
11 gclk4_regs:10 gclk4_regs:1 1e-06
12 gclk4_regs:1 gclk4_regs:1 1e-06
*END

*D_NET clknet_0_clk 0.674408
*CONN
*I clkbuf_0_clk:Z O *D CLKBUF_X3
*I clkbuf_1_1__f_clk:A I *D CLKBUF_X3
*I delaybuf_6_core:A I *D CLKBUF_X3
*CAP
1 clknet_0_clk:0 0.2599
2 clknet_0_clk:1 0.0628905
3 clknet_0_clk:2 0.0144135
4 clknet_0_clk:3 0.337204
*RES
1 clknet_0_clk:0 clknet_0_clk:3 0.010698
2 clkbuf_1_1__f_clk:A clknet_0_clk:4 1e-06
3 clknet_0_clk:4 clknet_0_clk:5 1e-06
4 clknet_0_clk:5 clknet_0_clk:6 1e-06
5 clknet_0_clk:6 clknet_0_clk:7 1e-06
6 clknet_0_clk:7 clknet_0_clk:0 1e-06
7 clknet_0_clk:1 clknet_0_clk:3 0.0025887
8 delaybuf_6_core:A clknet_0_clk:9 1e-06
9 clknet_0_clk:9 clknet_0_clk:10 1e-06
10 clknet_0_clk:10 clknet_0_clk:11 1e-06
11 clknet_0_clk:11 clknet_0_clk:12 1e-06
12 clknet_0_clk:12 clknet_0_clk:1 1e-06
13 clknet_0_clk:2 clknet_0_clk:2 1e-06
14 clkbuf_0_clk:Z clknet_0_clk:14 1e-06
15 clknet_0_clk:14 clknet_0_clk:15 1e-06
16 clknet_0_clk:15 clknet_0_clk:16 1e-06
17 clknet_0_clk:16 clknet_0_clk:17 1e-06
18 clknet_0_clk:17 clknet_0_clk:2 1e-06
19 clknet_0_clk:3 clknet_0_clk:2 0.00059329
*END

*D_NET clknet_1_0__leaf_clk_1 0.451564
*CONN
*I h1/gclk5:CK I *D CLKGATE_X1
*I clkbuf_1_0__f_clk:Z O *D CLKBUF_X3
*I delaybuf_5_core:A I *D CLKBUF_X3
*CAP
1 clknet_1_0__leaf_clk_1:0 0.0288271
2 clknet_1_0__leaf_clk_1:1 0.123975
3 clknet_1_0__leaf_clk_1:2 0.07298
4 clknet_1_0__leaf_clk_1:3 0.225782
*RES
1 clknet_1_0__leaf_clk_1:0 clknet_1_0__leaf_clk_1:3 0.00118658
2 delaybuf_5_core:A clknet_1_0__leaf_clk_1:4 1e-06
3 clknet_1_0__leaf_clk_1:4 clknet_1_0__leaf_clk_1:5 1e-06
4 clknet_1_0__leaf_clk_1:5 clknet_1_0__leaf_clk_1:6 1e-06
5 clknet_1_0__leaf_clk_1:6 clknet_1_0__leaf_clk_1:7 1e-06
6 clknet_1_0__leaf_clk_1:7 clknet_1_0__leaf_clk_1:0 1e-06
7 clknet_1_0__leaf_clk_1:1 clknet_1_0__leaf_clk_1:1 1e-06
8 clkbuf_1_0__f_clk:Z clknet_1_0__leaf_clk_1:9 1e-06
9 clknet_1_0__leaf_clk_1:9 clknet_1_0__leaf_clk_1:10 1e-06
10 clknet_1_0__leaf_clk_1:10 clknet_1_0__leaf_clk_1:11 1e-06
11 clknet_1_0__leaf_clk_1:11 clknet_1_0__leaf_clk_1:12 1e-06
12 clknet_1_0__leaf_clk_1:12 clknet_1_0__leaf_clk_1:1 1e-06
13 clknet_1_0__leaf_clk_1:2 clknet_1_0__leaf_clk_1:3 0.003004
14 h1/gclk5:CK clknet_1_0__leaf_clk_1:14 1e-06
15 clknet_1_0__leaf_clk_1:14 clknet_1_0__leaf_clk_1:15 1e-06
16 clknet_1_0__leaf_clk_1:15 clknet_1_0__leaf_clk_1:16 1e-06
17 clknet_1_0__leaf_clk_1:16 clknet_1_0__leaf_clk_1:17 1e-06
18 clknet_1_0__leaf_clk_1:17 clknet_1_0__leaf_clk_1:2 1e-06
19 clknet_1_0__leaf_clk_1:3 clknet_1_0__leaf_clk_1:1 0.00510305
*END

*D_NET clknet_1_1__leaf_clk_2 0.502686
*CONN
*I gclk4:CK I *D CLKGATE_X1
*I clkbuf_1_1__f_clk:Z O *D CLKBUF_X3
*I h1/delaybuf_2_core:A I *D CLKBUF_X3
*CAP
1 clknet_1_1__leaf_clk_2:0 0.0094874
2 clknet_1_1__leaf_clk_2:1 0.0418358
3 clknet_1_1__leaf_clk_2:2 0.20002
4 clknet_1_1__leaf_clk_2:3 0.251343
*RES
1 clknet_1_1__leaf_clk_2:0 clknet_1_1__leaf_clk_2:3 0.00039052
2 h1/delaybuf_2_core:A clknet_1_1__leaf_clk_2:4 1e-06
3 clknet_1_1__leaf_clk_2:4 clknet_1_1__leaf_clk_2:5 1e-06
4 clknet_1_1__leaf_clk_2:5 clknet_1_1__leaf_clk_2:6 1e-06
5 clknet_1_1__leaf_clk_2:6 clknet_1_1__leaf_clk_2:7 1e-06
6 clknet_1_1__leaf_clk_2:7 clknet_1_1__leaf_clk_2:0 1e-06
7 clknet_1_1__leaf_clk_2:1 clknet_1_1__leaf_clk_2:1 1e-06
8 clkbuf_1_1__f_clk:Z clknet_1_1__leaf_clk_2:9 1e-06
9 clknet_1_1__leaf_clk_2:9 clknet_1_1__leaf_clk_2:10 1e-06
10 clknet_1_1__leaf_clk_2:10 clknet_1_1__leaf_clk_2:11 1e-06
11 clknet_1_1__leaf_clk_2:11 clknet_1_1__leaf_clk_2:12 1e-06
12 clknet_1_1__leaf_clk_2:12 clknet_1_1__leaf_clk_2:1 1e-06
13 clknet_1_1__leaf_clk_2:2 clknet_1_1__leaf_clk_2:3 0.00823321
14 gclk4:CK clknet_1_1__leaf_clk_2:14 1e-06
15 clknet_1_1__leaf_clk_2:14 clknet_1_1__leaf_clk_2:15 1e-06
16 clknet_1_1__leaf_clk_2:15 clknet_1_1__leaf_clk_2:16 1e-06
17 clknet_1_1__leaf_clk_2:16 clknet_1_1__leaf_clk_2:17 1e-06
18 clknet_1_1__leaf_clk_2:17 clknet_1_1__leaf_clk_2:2 1e-06
19 clknet_1_1__leaf_clk_2:3 clknet_1_1__leaf_clk_2:1 0.00172204
*END

*D_NET clknet_0_h1\/gclk5 9.52966
*CONN
*I h1/clkbuf_0_h1\/gclk5:Z O *D CLKBUF_X3
*I h1/clkbuf_4_0__f_h1\/gclk5:A I *D CLKBUF_X3
*I h1/clkbuf_4_1__f_h1\/gclk5:A I *D CLKBUF_X3
*I h1/clkbuf_4_2__f_h1\/gclk5:A I *D CLKBUF_X3
*I h1/clkbuf_4_3__f_h1\/gclk5:A I *D CLKBUF_X3
*I h1/clkbuf_4_4__f_h1\/gclk5:A I *D CLKBUF_X3
*I h1/clkbuf_4_5__f_h1\/gclk5:A I *D CLKBUF_X3
*I h1/clkbuf_4_6__f_h1\/gclk5:A I *D CLKBUF_X3
*I h1/clkbuf_4_7__f_h1\/gclk5:A I *D CLKBUF_X3
*I h1/clkbuf_4_8__f_h1\/gclk5:A I *D CLKBUF_X3
*I h1/clkbuf_4_9__f_h1\/gclk5:A I *D CLKBUF_X3
*I h1/clkbuf_4_10__f_h1\/gclk5:A I *D CLKBUF_X3
*I h1/clkbuf_4_11__f_h1\/gclk5:A I *D CLKBUF_X3
*I h1/clkbuf_4_12__f_h1\/gclk5:A I *D CLKBUF_X3
*I h1/clkbuf_4_13__f_h1\/gclk5:A I *D CLKBUF_X3
*I h1/clkbuf_4_14__f_h1\/gclk5:A I *D CLKBUF_X3
*I h1/clkbuf_4_15__f_h1\/gclk5:A I *D CLKBUF_X3
*CAP
1 clknet_0_h1\/gclk5:0 0.381558
2 clknet_0_h1\/gclk5:1 0.425017
3 clknet_0_h1\/gclk5:2 0.335453
4 clknet_0_h1\/gclk5:3 0.00578366
5 clknet_0_h1\/gclk5:4 0.21416
6 clknet_0_h1\/gclk5:5 0.293653
7 clknet_0_h1\/gclk5:6 0.277744
8 clknet_0_h1\/gclk5:7 0.470867
9 clknet_0_h1\/gclk5:8 0.43133
10 clknet_0_h1\/gclk5:9 0.287961
11 clknet_0_h1\/gclk5:10 0.572601
12 clknet_0_h1\/gclk5:11 0.0315274
13 clknet_0_h1\/gclk5:12 0.15844
14 clknet_0_h1\/gclk5:13 0.248114
15 clknet_0_h1\/gclk5:14 0.292358
16 clknet_0_h1\/gclk5:15 0.384148
17 clknet_0_h1\/gclk5:16 0.510842
18 clknet_0_h1\/gclk5:17 0.645472
19 clknet_0_h1\/gclk5:18 0.669318
20 clknet_0_h1\/gclk5:19 0.741623
21 clknet_0_h1\/gclk5:20 0.437442
22 clknet_0_h1\/gclk5:21 0.220965
23 clknet_0_h1\/gclk5:22 0.696758
24 clknet_0_h1\/gclk5:23 0.263823
25 clknet_0_h1\/gclk5:24 0.532699
*RES
1 clknet_0_h1\/gclk5:0 clknet_0_h1\/gclk5:24 0.0157057
2 h1/clkbuf_4_10__f_h1\/gclk5:A clknet_0_h1\/gclk5:25 1e-06
3 clknet_0_h1\/gclk5:25 clknet_0_h1\/gclk5:26 1e-06
4 clknet_0_h1\/gclk5:26 clknet_0_h1\/gclk5:27 1e-06
5 clknet_0_h1\/gclk5:27 clknet_0_h1\/gclk5:28 1e-06
6 clknet_0_h1\/gclk5:28 clknet_0_h1\/gclk5:0 1e-06
7 clknet_0_h1\/gclk5:1 clknet_0_h1\/gclk5:22 0.0174945
8 h1/clkbuf_4_8__f_h1\/gclk5:A clknet_0_h1\/gclk5:30 1e-06
9 clknet_0_h1\/gclk5:30 clknet_0_h1\/gclk5:31 1e-06
10 clknet_0_h1\/gclk5:31 clknet_0_h1\/gclk5:32 1e-06
11 clknet_0_h1\/gclk5:32 clknet_0_h1\/gclk5:33 1e-06
12 clknet_0_h1\/gclk5:33 clknet_0_h1\/gclk5:1 1e-06
13 clknet_0_h1\/gclk5:2 clknet_0_h1\/gclk5:17 0.0138079
14 h1/clkbuf_4_2__f_h1\/gclk5:A clknet_0_h1\/gclk5:35 1e-06
15 clknet_0_h1\/gclk5:35 clknet_0_h1\/gclk5:36 1e-06
16 clknet_0_h1\/gclk5:36 clknet_0_h1\/gclk5:37 1e-06
17 clknet_0_h1\/gclk5:37 clknet_0_h1\/gclk5:38 1e-06
18 clknet_0_h1\/gclk5:38 clknet_0_h1\/gclk5:2 1e-06
19 clknet_0_h1\/gclk5:3 clknet_0_h1\/gclk5:24 0.000238067
20 h1/clkbuf_4_11__f_h1\/gclk5:A clknet_0_h1\/gclk5:40 1e-06
21 clknet_0_h1\/gclk5:40 clknet_0_h1\/gclk5:41 1e-06
22 clknet_0_h1\/gclk5:41 clknet_0_h1\/gclk5:42 1e-06
23 clknet_0_h1\/gclk5:42 clknet_0_h1\/gclk5:43 1e-06
24 clknet_0_h1\/gclk5:43 clknet_0_h1\/gclk5:3 1e-06
25 clknet_0_h1\/gclk5:4 clknet_0_h1\/gclk5:18 0.00881524
26 h1/clkbuf_4_0__f_h1\/gclk5:A clknet_0_h1\/gclk5:45 1e-06
27 clknet_0_h1\/gclk5:45 clknet_0_h1\/gclk5:46 1e-06
28 clknet_0_h1\/gclk5:46 clknet_0_h1\/gclk5:47 1e-06
29 clknet_0_h1\/gclk5:47 clknet_0_h1\/gclk5:48 1e-06
30 clknet_0_h1\/gclk5:48 clknet_0_h1\/gclk5:4 1e-06
31 clknet_0_h1\/gclk5:5 clknet_0_h1\/gclk5:22 0.00218616
32 h1/clkbuf_4_9__f_h1\/gclk5:A clknet_0_h1\/gclk5:50 1e-06
33 clknet_0_h1\/gclk5:50 clknet_0_h1\/gclk5:51 1e-06
34 clknet_0_h1\/gclk5:51 clknet_0_h1\/gclk5:52 1e-06
35 clknet_0_h1\/gclk5:52 clknet_0_h1\/gclk5:53 1e-06
36 clknet_0_h1\/gclk5:53 clknet_0_h1\/gclk5:5 1e-06
37 clknet_0_h1\/gclk5:6 clknet_0_h1\/gclk5:6 1e-06
38 h1/clkbuf_0_h1\/gclk5:Z clknet_0_h1\/gclk5:55 1e-06
39 clknet_0_h1\/gclk5:55 clknet_0_h1\/gclk5:56 1e-06
40 clknet_0_h1\/gclk5:56 clknet_0_h1\/gclk5:57 1e-06
41 clknet_0_h1\/gclk5:57 clknet_0_h1\/gclk5:58 1e-06
42 clknet_0_h1\/gclk5:58 clknet_0_h1\/gclk5:6 1e-06
43 clknet_0_h1\/gclk5:7 clknet_0_h1\/gclk5:5 0.00990118
44 h1/clkbuf_4_12__f_h1\/gclk5:A clknet_0_h1\/gclk5:60 1e-06
45 clknet_0_h1\/gclk5:60 clknet_0_h1\/gclk5:61 1e-06
46 clknet_0_h1\/gclk5:61 clknet_0_h1\/gclk5:62 1e-06
47 clknet_0_h1\/gclk5:62 clknet_0_h1\/gclk5:63 1e-06
48 clknet_0_h1\/gclk5:63 clknet_0_h1\/gclk5:7 1e-06
49 clknet_0_h1\/gclk5:8 clknet_0_h1\/gclk5:17 0.00554088
50 h1/clkbuf_4_1__f_h1\/gclk5:A clknet_0_h1\/gclk5:65 1e-06
51 clknet_0_h1\/gclk5:65 clknet_0_h1\/gclk5:66 1e-06
52 clknet_0_h1\/gclk5:66 clknet_0_h1\/gclk5:67 1e-06
53 clknet_0_h1\/gclk5:67 clknet_0_h1\/gclk5:68 1e-06
54 clknet_0_h1\/gclk5:68 clknet_0_h1\/gclk5:8 1e-06
55 clknet_0_h1\/gclk5:9 clknet_0_h1\/gclk5:21 0.00463292
56 h1/clkbuf_4_3__f_h1\/gclk5:A clknet_0_h1\/gclk5:70 1e-06
57 clknet_0_h1\/gclk5:70 clknet_0_h1\/gclk5:71 1e-06
58 clknet_0_h1\/gclk5:71 clknet_0_h1\/gclk5:72 1e-06
59 clknet_0_h1\/gclk5:72 clknet_0_h1\/gclk5:73 1e-06
60 clknet_0_h1\/gclk5:73 clknet_0_h1\/gclk5:9 1e-06
61 clknet_0_h1\/gclk5:10 clknet_0_h1\/gclk5:20 0.00254214
62 h1/clkbuf_4_14__f_h1\/gclk5:A clknet_0_h1\/gclk5:75 1e-06
63 clknet_0_h1\/gclk5:75 clknet_0_h1\/gclk5:76 1e-06
64 clknet_0_h1\/gclk5:76 clknet_0_h1\/gclk5:77 1e-06
65 clknet_0_h1\/gclk5:77 clknet_0_h1\/gclk5:78 1e-06
66 clknet_0_h1\/gclk5:78 clknet_0_h1\/gclk5:10 1e-06
67 clknet_0_h1\/gclk5:11 clknet_0_h1\/gclk5:23 0.00129773
68 h1/clkbuf_4_6__f_h1\/gclk5:A clknet_0_h1\/gclk5:80 1e-06
69 clknet_0_h1\/gclk5:80 clknet_0_h1\/gclk5:81 1e-06
70 clknet_0_h1\/gclk5:81 clknet_0_h1\/gclk5:82 1e-06
71 clknet_0_h1\/gclk5:82 clknet_0_h1\/gclk5:83 1e-06
72 clknet_0_h1\/gclk5:83 clknet_0_h1\/gclk5:11 1e-06
73 clknet_0_h1\/gclk5:12 clknet_0_h1\/gclk5:18 0.00652168
74 h1/clkbuf_4_4__f_h1\/gclk5:A clknet_0_h1\/gclk5:85 1e-06
75 clknet_0_h1\/gclk5:85 clknet_0_h1\/gclk5:86 1e-06
76 clknet_0_h1\/gclk5:86 clknet_0_h1\/gclk5:87 1e-06
77 clknet_0_h1\/gclk5:87 clknet_0_h1\/gclk5:88 1e-06
78 clknet_0_h1\/gclk5:88 clknet_0_h1\/gclk5:12 1e-06
79 clknet_0_h1\/gclk5:13 clknet_0_h1\/gclk5:23 0.00753253
80 h1/clkbuf_4_7__f_h1\/gclk5:A clknet_0_h1\/gclk5:90 1e-06
81 clknet_0_h1\/gclk5:90 clknet_0_h1\/gclk5:91 1e-06
82 clknet_0_h1\/gclk5:91 clknet_0_h1\/gclk5:92 1e-06
83 clknet_0_h1\/gclk5:92 clknet_0_h1\/gclk5:93 1e-06
84 clknet_0_h1\/gclk5:93 clknet_0_h1\/gclk5:13 1e-06
85 clknet_0_h1\/gclk5:14 clknet_0_h1\/gclk5:19 0.012034
86 h1/clkbuf_4_5__f_h1\/gclk5:A clknet_0_h1\/gclk5:95 1e-06
87 clknet_0_h1\/gclk5:95 clknet_0_h1\/gclk5:96 1e-06
88 clknet_0_h1\/gclk5:96 clknet_0_h1\/gclk5:97 1e-06
89 clknet_0_h1\/gclk5:97 clknet_0_h1\/gclk5:98 1e-06
90 clknet_0_h1\/gclk5:98 clknet_0_h1\/gclk5:14 1e-06
91 clknet_0_h1\/gclk5:15 clknet_0_h1\/gclk5:19 0.0158123
92 h1/clkbuf_4_13__f_h1\/gclk5:A clknet_0_h1\/gclk5:100 1e-06
93 clknet_0_h1\/gclk5:100 clknet_0_h1\/gclk5:101 1e-06
94 clknet_0_h1\/gclk5:101 clknet_0_h1\/gclk5:102 1e-06
95 clknet_0_h1\/gclk5:102 clknet_0_h1\/gclk5:103 1e-06
96 clknet_0_h1\/gclk5:103 clknet_0_h1\/gclk5:15 1e-06
97 clknet_0_h1\/gclk5:16 clknet_0_h1\/gclk5:10 0.0210272
98 h1/clkbuf_4_15__f_h1\/gclk5:A clknet_0_h1\/gclk5:105 1e-06
99 clknet_0_h1\/gclk5:105 clknet_0_h1\/gclk5:106 1e-06
100 clknet_0_h1\/gclk5:106 clknet_0_h1\/gclk5:107 1e-06
101 clknet_0_h1\/gclk5:107 clknet_0_h1\/gclk5:108 1e-06
102 clknet_0_h1\/gclk5:108 clknet_0_h1\/gclk5:16 1e-06
103 clknet_0_h1\/gclk5:17 clknet_0_h1\/gclk5:9 0.00722011
104 clknet_0_h1\/gclk5:18 clknet_0_h1\/gclk5:8 0.0122135
105 clknet_0_h1\/gclk5:19 clknet_0_h1\/gclk5:13 0.00268032
106 clknet_0_h1\/gclk5:20 clknet_0_h1\/gclk5:7 0.00948062
107 clknet_0_h1\/gclk5:21 clknet_0_h1\/gclk5:6 0.00243324
108 clknet_0_h1\/gclk5:22 clknet_0_h1\/gclk5:6 0.00899923
109 clknet_0_h1\/gclk5:23 clknet_0_h1\/gclk5:21 0.0020292
110 clknet_0_h1\/gclk5:24 clknet_0_h1\/gclk5:20 0.00598322
*END

*D_NET clknet_4_0__leaf_h1\/gclk5 0.922589
*CONN
*I h1/ff0\/name:CK I *D DFF_X1
*I h1/ff100:CK I *D DFF_X1
*I h1/ff106:CK I *D DFF_X1
*I h1/ff119:CK I *D DFF_X1
*I h1/ff48:CK I *D DFF_X1
*I h1/ff54:CK I *D DFF_X1
*I h1/clkbuf_4_0__f_h1\/gclk5:Z O *D CLKBUF_X3
*I clkload0:A I *D INV_X4
*CAP
1 clknet_4_0__leaf_h1\/gclk5:0 0.121383
2 clknet_4_0__leaf_h1\/gclk5:1 0.0200114
3 clknet_4_0__leaf_h1\/gclk5:2 0.0242391
4 clknet_4_0__leaf_h1\/gclk5:3 0.0590006
5 clknet_4_0__leaf_h1\/gclk5:4 0.144645
6 clknet_4_0__leaf_h1\/gclk5:5 0.124803
7 clknet_4_0__leaf_h1\/gclk5:6 0.272831
8 clknet_4_0__leaf_h1\/gclk5:7 0.0462234
9 clknet_4_0__leaf_h1\/gclk5:8 0.109452
*RES
1 clknet_4_0__leaf_h1\/gclk5:0 clknet_4_0__leaf_h1\/gclk5:6 0.011544
2 h1/ff48:CK clknet_4_0__leaf_h1\/gclk5:9 1e-06
3 clknet_4_0__leaf_h1\/gclk5:9 clknet_4_0__leaf_h1\/gclk5:0 1e-06
4 h1/ff0\/name:CK clknet_4_0__leaf_h1\/gclk5:11 1e-06
5 clknet_4_0__leaf_h1\/gclk5:11 clknet_4_0__leaf_h1\/gclk5:6 1e-06
6 clknet_4_0__leaf_h1\/gclk5:1 clknet_4_0__leaf_h1\/gclk5:2 0.00190316
7 clkload0:A clknet_4_0__leaf_h1\/gclk5:13 1e-06
8 clknet_4_0__leaf_h1\/gclk5:13 clknet_4_0__leaf_h1\/gclk5:1 1e-06
9 h1/clkbuf_4_0__f_h1\/gclk5:Z clknet_4_0__leaf_h1\/gclk5:15 1e-06
10 clknet_4_0__leaf_h1\/gclk5:15 clknet_4_0__leaf_h1\/gclk5:2 1e-06
11 clknet_4_0__leaf_h1\/gclk5:2 clknet_4_0__leaf_h1\/gclk5:2 1e-06
12 clknet_4_0__leaf_h1\/gclk5:3 clknet_4_0__leaf_h1\/gclk5:4 0.00561118
13 h1/ff106:CK clknet_4_0__leaf_h1\/gclk5:17 1e-06
14 clknet_4_0__leaf_h1\/gclk5:17 clknet_4_0__leaf_h1\/gclk5:3 1e-06
15 h1/ff100:CK clknet_4_0__leaf_h1\/gclk5:19 1e-06
16 clknet_4_0__leaf_h1\/gclk5:19 clknet_4_0__leaf_h1\/gclk5:4 1e-06
17 clknet_4_0__leaf_h1\/gclk5:4 clknet_4_0__leaf_h1\/gclk5:8 0.00814515
18 clknet_4_0__leaf_h1\/gclk5:5 clknet_4_0__leaf_h1\/gclk5:8 0.00186205
19 h1/ff54:CK clknet_4_0__leaf_h1\/gclk5:21 1e-06
20 clknet_4_0__leaf_h1\/gclk5:21 clknet_4_0__leaf_h1\/gclk5:5 1e-06
21 clknet_4_0__leaf_h1\/gclk5:6 clknet_4_0__leaf_h1\/gclk5:5 0.0100072
22 clknet_4_0__leaf_h1\/gclk5:7 clknet_4_0__leaf_h1\/gclk5:6 0.00439602
23 h1/ff119:CK clknet_4_0__leaf_h1\/gclk5:23 1e-06
24 clknet_4_0__leaf_h1\/gclk5:23 clknet_4_0__leaf_h1\/gclk5:7 1e-06
25 clknet_4_0__leaf_h1\/gclk5:8 clknet_4_0__leaf_h1\/gclk5:2 0.000402075
*END

*D_NET clknet_4_1__leaf_h1\/gclk5 0.816426
*CONN
*I h1/ff129:CK I *D DFF_X1
*I h1/ff133:CK I *D DFF_X1
*I h1/ff141:CK I *D DFF_X1
*I h1/ff21:CK I *D DFF_X1
*I h1/ff22:CK I *D DFF_X1
*I h1/clkbuf_4_1__f_h1\/gclk5:Z O *D CLKBUF_X3
*I clkload1:A I *D INV_X4
*CAP
1 clknet_4_1__leaf_h1\/gclk5:0 0.0605038
2 clknet_4_1__leaf_h1\/gclk5:1 0.187148
3 clknet_4_1__leaf_h1\/gclk5:2 0.225649
4 clknet_4_1__leaf_h1\/gclk5:3 0.119016
5 clknet_4_1__leaf_h1\/gclk5:4 0.0416386
6 clknet_4_1__leaf_h1\/gclk5:5 0.0183203
7 clknet_4_1__leaf_h1\/gclk5:6 0.062101
8 clknet_4_1__leaf_h1\/gclk5:7 0.102048
*RES
1 clknet_4_1__leaf_h1\/gclk5:0 clknet_4_1__leaf_h1\/gclk5:1 0.00575414
2 h1/ff21:CK clknet_4_1__leaf_h1\/gclk5:8 1e-06
3 clknet_4_1__leaf_h1\/gclk5:8 clknet_4_1__leaf_h1\/gclk5:0 1e-06
4 h1/ff141:CK clknet_4_1__leaf_h1\/gclk5:10 1e-06
5 clknet_4_1__leaf_h1\/gclk5:10 clknet_4_1__leaf_h1\/gclk5:1 1e-06
6 clknet_4_1__leaf_h1\/gclk5:1 clknet_4_1__leaf_h1\/gclk5:2 0.0120444
7 h1/ff22:CK clknet_4_1__leaf_h1\/gclk5:12 1e-06
8 clknet_4_1__leaf_h1\/gclk5:12 clknet_4_1__leaf_h1\/gclk5:2 1e-06
9 clknet_4_1__leaf_h1\/gclk5:2 clknet_4_1__leaf_h1\/gclk5:3 0.0094157
10 clkload1:A clknet_4_1__leaf_h1\/gclk5:14 1e-06
11 clknet_4_1__leaf_h1\/gclk5:14 clknet_4_1__leaf_h1\/gclk5:3 1e-06
12 clknet_4_1__leaf_h1\/gclk5:3 clknet_4_1__leaf_h1\/gclk5:4 0.00190316
13 h1/clkbuf_4_1__f_h1\/gclk5:Z clknet_4_1__leaf_h1\/gclk5:16 1e-06
14 clknet_4_1__leaf_h1\/gclk5:16 clknet_4_1__leaf_h1\/gclk5:4 1e-06
15 clknet_4_1__leaf_h1\/gclk5:4 clknet_4_1__leaf_h1\/gclk5:4 1e-06
16 clknet_4_1__leaf_h1\/gclk5:5 clknet_4_1__leaf_h1\/gclk5:7 0.00174232
17 h1/ff129:CK clknet_4_1__leaf_h1\/gclk5:18 1e-06
18 clknet_4_1__leaf_h1\/gclk5:18 clknet_4_1__leaf_h1\/gclk5:5 1e-06
19 clknet_4_1__leaf_h1\/gclk5:6 clknet_4_1__leaf_h1\/gclk5:7 0.00590603
20 h1/ff133:CK clknet_4_1__leaf_h1\/gclk5:20 1e-06
21 clknet_4_1__leaf_h1\/gclk5:20 clknet_4_1__leaf_h1\/gclk5:6 1e-06
22 clknet_4_1__leaf_h1\/gclk5:7 clknet_4_1__leaf_h1\/gclk5:4 0.00205684
*END

*D_NET clknet_4_2__leaf_h1\/gclk5 1.21165
*CONN
*I h1/ff116:CK I *D DFF_X1
*I h1/ff121:CK I *D DFF_X1
*I h1/ff30:CK I *D DFF_X1
*I h1/ff77:CK I *D DFF_X1
*I h1/ff80:CK I *D DFF_X1
*I h1/clkbuf_4_2__f_h1\/gclk5:Z O *D CLKBUF_X3
*I clkload2:A I *D INV_X4
*CAP
1 clknet_4_2__leaf_h1\/gclk5:0 0.188652
2 clknet_4_2__leaf_h1\/gclk5:1 0.0590006
3 clknet_4_2__leaf_h1\/gclk5:2 9.395e-05
4 clknet_4_2__leaf_h1\/gclk5:3 0.0228674
5 clknet_4_2__leaf_h1\/gclk5:4 0.241696
6 clknet_4_2__leaf_h1\/gclk5:5 0.167607
7 clknet_4_2__leaf_h1\/gclk5:6 0.152518
8 clknet_4_2__leaf_h1\/gclk5:7 0.229557
9 clknet_4_2__leaf_h1\/gclk5:8 0.149662
*RES
1 clknet_4_2__leaf_h1\/gclk5:0 clknet_4_2__leaf_h1\/gclk5:8 0.0123303
2 h1/ff80:CK clknet_4_2__leaf_h1\/gclk5:9 1e-06
3 clknet_4_2__leaf_h1\/gclk5:9 clknet_4_2__leaf_h1\/gclk5:0 1e-06
4 clknet_4_2__leaf_h1\/gclk5:1 clknet_4_2__leaf_h1\/gclk5:0 0.00561118
5 h1/ff30:CK clknet_4_2__leaf_h1\/gclk5:11 1e-06
6 clknet_4_2__leaf_h1\/gclk5:11 clknet_4_2__leaf_h1\/gclk5:1 1e-06
7 clknet_4_2__leaf_h1\/gclk5:2 clknet_4_2__leaf_h1\/gclk5:8 8.935e-06
8 clkload2:A clknet_4_2__leaf_h1\/gclk5:13 1e-06
9 clknet_4_2__leaf_h1\/gclk5:13 clknet_4_2__leaf_h1\/gclk5:2 1e-06
10 clknet_4_2__leaf_h1\/gclk5:3 clknet_4_2__leaf_h1\/gclk5:3 1e-06
11 h1/clkbuf_4_2__f_h1\/gclk5:Z clknet_4_2__leaf_h1\/gclk5:15 1e-06
12 clknet_4_2__leaf_h1\/gclk5:15 clknet_4_2__leaf_h1\/gclk5:3 1e-06
13 clknet_4_2__leaf_h1\/gclk5:4 clknet_4_2__leaf_h1\/gclk5:7 0.00704614
14 h1/ff116:CK clknet_4_2__leaf_h1\/gclk5:17 1e-06
15 clknet_4_2__leaf_h1\/gclk5:17 clknet_4_2__leaf_h1\/gclk5:4 1e-06
16 clknet_4_2__leaf_h1\/gclk5:5 clknet_4_2__leaf_h1\/gclk5:4 0.01594
17 h1/ff121:CK clknet_4_2__leaf_h1\/gclk5:19 1e-06
18 clknet_4_2__leaf_h1\/gclk5:19 clknet_4_2__leaf_h1\/gclk5:5 1e-06
19 clknet_4_2__leaf_h1\/gclk5:6 clknet_4_2__leaf_h1\/gclk5:7 0.0145051
20 h1/ff77:CK clknet_4_2__leaf_h1\/gclk5:21 1e-06
21 clknet_4_2__leaf_h1\/gclk5:21 clknet_4_2__leaf_h1\/gclk5:6 1e-06
22 clknet_4_2__leaf_h1\/gclk5:7 clknet_4_2__leaf_h1\/gclk5:3 0.000280559
23 clknet_4_2__leaf_h1\/gclk5:8 clknet_4_2__leaf_h1\/gclk5:3 0.00189422
*END

*D_NET clknet_4_3__leaf_h1\/gclk5 1.49741
*CONN
*I h1/ff104:CK I *D DFF_X1
*I h1/ff15:CK I *D DFF_X1
*I h1/ff24:CK I *D DFF_X1
*I h1/ff46:CK I *D DFF_X1
*I h1/ff52:CK I *D DFF_X1
*I h1/ff6:CK I *D DFF_X1
*I h1/clkbuf_4_3__f_h1\/gclk5:Z O *D CLKBUF_X3
*I clkload3:A I *D INV_X4
*CAP
1 clknet_4_3__leaf_h1\/gclk5:0 0.126645
2 clknet_4_3__leaf_h1\/gclk5:1 0.067644
3 clknet_4_3__leaf_h1\/gclk5:2 0.253289
4 clknet_4_3__leaf_h1\/gclk5:3 0.285608
5 clknet_4_3__leaf_h1\/gclk5:4 0.035701
6 clknet_4_3__leaf_h1\/gclk5:5 0.164225
7 clknet_4_3__leaf_h1\/gclk5:6 0.0688841
8 clknet_4_3__leaf_h1\/gclk5:7 0.0200114
9 clknet_4_3__leaf_h1\/gclk5:8 0.162346
10 clknet_4_3__leaf_h1\/gclk5:9 0.31306
*RES
1 clknet_4_3__leaf_h1\/gclk5:0 clknet_4_3__leaf_h1\/gclk5:2 0.0120444
2 h1/ff46:CK clknet_4_3__leaf_h1\/gclk5:10 1e-06
3 clknet_4_3__leaf_h1\/gclk5:10 clknet_4_3__leaf_h1\/gclk5:0 1e-06
4 h1/ff104:CK clknet_4_3__leaf_h1\/gclk5:12 1e-06
5 clknet_4_3__leaf_h1\/gclk5:12 clknet_4_3__leaf_h1\/gclk5:2 1e-06
6 clknet_4_3__leaf_h1\/gclk5:1 clknet_4_3__leaf_h1\/gclk5:8 0.0064332
7 h1/ff52:CK clknet_4_3__leaf_h1\/gclk5:14 1e-06
8 clknet_4_3__leaf_h1\/gclk5:14 clknet_4_3__leaf_h1\/gclk5:1 1e-06
9 clknet_4_3__leaf_h1\/gclk5:2 clknet_4_3__leaf_h1\/gclk5:3 0.0120444
10 h1/ff15:CK clknet_4_3__leaf_h1\/gclk5:16 1e-06
11 clknet_4_3__leaf_h1\/gclk5:16 clknet_4_3__leaf_h1\/gclk5:3 1e-06
12 clknet_4_3__leaf_h1\/gclk5:3 clknet_4_3__leaf_h1\/gclk5:9 0.00950684
13 clknet_4_3__leaf_h1\/gclk5:4 clknet_4_3__leaf_h1\/gclk5:8 0.0033953
14 h1/ff6:CK clknet_4_3__leaf_h1\/gclk5:18 1e-06
15 clknet_4_3__leaf_h1\/gclk5:18 clknet_4_3__leaf_h1\/gclk5:4 1e-06
16 clknet_4_3__leaf_h1\/gclk5:5 clknet_4_3__leaf_h1\/gclk5:9 0.0156184
17 h1/ff24:CK clknet_4_3__leaf_h1\/gclk5:20 1e-06
18 clknet_4_3__leaf_h1\/gclk5:20 clknet_4_3__leaf_h1\/gclk5:5 1e-06
19 clknet_4_3__leaf_h1\/gclk5:6 clknet_4_3__leaf_h1\/gclk5:7 0.00190316
20 clkload3:A clknet_4_3__leaf_h1\/gclk5:22 1e-06
21 clknet_4_3__leaf_h1\/gclk5:22 clknet_4_3__leaf_h1\/gclk5:6 1e-06
22 h1/clkbuf_4_3__f_h1\/gclk5:Z clknet_4_3__leaf_h1\/gclk5:24 1e-06
23 clknet_4_3__leaf_h1\/gclk5:24 clknet_4_3__leaf_h1\/gclk5:7 1e-06
24 clknet_4_3__leaf_h1\/gclk5:7 clknet_4_3__leaf_h1\/gclk5:7 1e-06
25 clknet_4_3__leaf_h1\/gclk5:8 clknet_4_3__leaf_h1\/gclk5:3 0.00561118
26 clknet_4_3__leaf_h1\/gclk5:9 clknet_4_3__leaf_h1\/gclk5:6 0.00464799
*END

*D_NET clknet_4_4__leaf_h1\/gclk5 1.8746
*CONN
*I h1/ff105:CK I *D DFF_X1
*I h1/ff115:CK I *D DFF_X1
*I h1/ff118:CK I *D DFF_X1
*I h1/ff138:CK I *D DFF_X1
*I h1/ff23:CK I *D DFF_X1
*I h1/ff3:CK I *D DFF_X1
*I h1/clkbuf_4_4__f_h1\/gclk5:Z O *D CLKBUF_X3
*I clkload4:A I *D INV_X4
*CAP
1 clknet_4_4__leaf_h1\/gclk5:0 0.307348
2 clknet_4_4__leaf_h1\/gclk5:1 0.0545474
3 clknet_4_4__leaf_h1\/gclk5:2 0.067644
4 clknet_4_4__leaf_h1\/gclk5:3 0.141639
5 clknet_4_4__leaf_h1\/gclk5:4 0.0757237
6 clknet_4_4__leaf_h1\/gclk5:5 0.126645
7 clknet_4_4__leaf_h1\/gclk5:6 0.151447
8 clknet_4_4__leaf_h1\/gclk5:7 0.25141
9 clknet_4_4__leaf_h1\/gclk5:8 0.214676
10 clknet_4_4__leaf_h1\/gclk5:9 0.483523
*RES
1 clknet_4_4__leaf_h1\/gclk5:0 clknet_4_4__leaf_h1\/gclk5:9 0.02923
2 h1/ff3:CK clknet_4_4__leaf_h1\/gclk5:10 1e-06
3 clknet_4_4__leaf_h1\/gclk5:10 clknet_4_4__leaf_h1\/gclk5:0 1e-06
4 clknet_4_4__leaf_h1\/gclk5:1 clknet_4_4__leaf_h1\/gclk5:9 0.00518766
5 h1/ff118:CK clknet_4_4__leaf_h1\/gclk5:12 1e-06
6 clknet_4_4__leaf_h1\/gclk5:12 clknet_4_4__leaf_h1\/gclk5:1 1e-06
7 clknet_4_4__leaf_h1\/gclk5:2 clknet_4_4__leaf_h1\/gclk5:5 0.0064332
8 h1/ff105:CK clknet_4_4__leaf_h1\/gclk5:14 1e-06
9 clknet_4_4__leaf_h1\/gclk5:14 clknet_4_4__leaf_h1\/gclk5:2 1e-06
10 h1/ff23:CK clknet_4_4__leaf_h1\/gclk5:16 1e-06
11 clknet_4_4__leaf_h1\/gclk5:16 clknet_4_4__leaf_h1\/gclk5:5 1e-06
12 clknet_4_4__leaf_h1\/gclk5:3 clknet_4_4__leaf_h1\/gclk5:4 0.00190316
13 clkload4:A clknet_4_4__leaf_h1\/gclk5:18 1e-06
14 clknet_4_4__leaf_h1\/gclk5:18 clknet_4_4__leaf_h1\/gclk5:3 1e-06
15 h1/clkbuf_4_4__f_h1\/gclk5:Z clknet_4_4__leaf_h1\/gclk5:20 1e-06
16 clknet_4_4__leaf_h1\/gclk5:20 clknet_4_4__leaf_h1\/gclk5:4 1e-06
17 clknet_4_4__leaf_h1\/gclk5:4 clknet_4_4__leaf_h1\/gclk5:4 1e-06
18 clknet_4_4__leaf_h1\/gclk5:5 clknet_4_4__leaf_h1\/gclk5:8 0.00561118
19 clknet_4_4__leaf_h1\/gclk5:6 clknet_4_4__leaf_h1\/gclk5:7 0.0144032
20 h1/ff138:CK clknet_4_4__leaf_h1\/gclk5:22 1e-06
21 clknet_4_4__leaf_h1\/gclk5:22 clknet_4_4__leaf_h1\/gclk5:6 1e-06
22 h1/ff115:CK clknet_4_4__leaf_h1\/gclk5:24 1e-06
23 clknet_4_4__leaf_h1\/gclk5:24 clknet_4_4__leaf_h1\/gclk5:7 1e-06
24 clknet_4_4__leaf_h1\/gclk5:7 clknet_4_4__leaf_h1\/gclk5:8 0.00950684
25 clknet_4_4__leaf_h1\/gclk5:8 clknet_4_4__leaf_h1\/gclk5:4 0.00529846
26 clknet_4_4__leaf_h1\/gclk5:9 clknet_4_4__leaf_h1\/gclk5:3 0.0115673
*END

*D_NET clknet_4_5__leaf_h1\/gclk5 1.38719
*CONN
*I h1/ff11:CK I *D DFF_X1
*I h1/ff139:CK I *D DFF_X1
*I h1/ff142:CK I *D DFF_X1
*I h1/ff19:CK I *D DFF_X1
*I h1/ff39:CK I *D DFF_X1
*I h1/ff4:CK I *D DFF_X1
*I h1/ff42:CK I *D DFF_X1
*I h1/clkbuf_4_5__f_h1\/gclk5:Z O *D CLKBUF_X3
*I clkload5:A I *D INV_X4
*CAP
1 clknet_4_5__leaf_h1\/gclk5:0 0.180384
2 clknet_4_5__leaf_h1\/gclk5:1 0.0590006
3 clknet_4_5__leaf_h1\/gclk5:2 0.183578
4 clknet_4_5__leaf_h1\/gclk5:3 0.146186
5 clknet_4_5__leaf_h1\/gclk5:4 9.395e-05
6 clknet_4_5__leaf_h1\/gclk5:5 0.0728676
7 clknet_4_5__leaf_h1\/gclk5:6 0.25141
8 clknet_4_5__leaf_h1\/gclk5:7 0.0136791
9 clknet_4_5__leaf_h1\/gclk5:8 0.0214206
10 clknet_4_5__leaf_h1\/gclk5:9 0.218189
11 clknet_4_5__leaf_h1\/gclk5:10 0.158174
12 clknet_4_5__leaf_h1\/gclk5:11 0.0822063
*RES
1 clknet_4_5__leaf_h1\/gclk5:0 clknet_4_5__leaf_h1\/gclk5:2 0.011544
2 h1/ff139:CK clknet_4_5__leaf_h1\/gclk5:12 1e-06
3 clknet_4_5__leaf_h1\/gclk5:12 clknet_4_5__leaf_h1\/gclk5:0 1e-06
4 h1/ff11:CK clknet_4_5__leaf_h1\/gclk5:14 1e-06
5 clknet_4_5__leaf_h1\/gclk5:14 clknet_4_5__leaf_h1\/gclk5:2 1e-06
6 clknet_4_5__leaf_h1\/gclk5:1 clknet_4_5__leaf_h1\/gclk5:0 0.00561118
7 h1/ff19:CK clknet_4_5__leaf_h1\/gclk5:16 1e-06
8 clknet_4_5__leaf_h1\/gclk5:16 clknet_4_5__leaf_h1\/gclk5:1 1e-06
9 clknet_4_5__leaf_h1\/gclk5:2 clknet_4_5__leaf_h1\/gclk5:11 0.00591497
10 clknet_4_5__leaf_h1\/gclk5:3 clknet_4_5__leaf_h1\/gclk5:6 0.0139029
11 h1/ff142:CK clknet_4_5__leaf_h1\/gclk5:18 1e-06
12 clknet_4_5__leaf_h1\/gclk5:18 clknet_4_5__leaf_h1\/gclk5:3 1e-06
13 h1/ff42:CK clknet_4_5__leaf_h1\/gclk5:20 1e-06
14 clknet_4_5__leaf_h1\/gclk5:20 clknet_4_5__leaf_h1\/gclk5:6 1e-06
15 clknet_4_5__leaf_h1\/gclk5:4 clknet_4_5__leaf_h1\/gclk5:11 8.935e-06
16 clkload5:A clknet_4_5__leaf_h1\/gclk5:22 1e-06
17 clknet_4_5__leaf_h1\/gclk5:22 clknet_4_5__leaf_h1\/gclk5:4 1e-06
18 clknet_4_5__leaf_h1\/gclk5:5 clknet_4_5__leaf_h1\/gclk5:5 1e-06
19 h1/clkbuf_4_5__f_h1\/gclk5:Z clknet_4_5__leaf_h1\/gclk5:24 1e-06
20 clknet_4_5__leaf_h1\/gclk5:24 clknet_4_5__leaf_h1\/gclk5:5 1e-06
21 clknet_4_5__leaf_h1\/gclk5:6 clknet_4_5__leaf_h1\/gclk5:9 0.0100072
22 clknet_4_5__leaf_h1\/gclk5:7 clknet_4_5__leaf_h1\/gclk5:10 0.00130094
23 h1/ff4:CK clknet_4_5__leaf_h1\/gclk5:26 1e-06
24 clknet_4_5__leaf_h1\/gclk5:26 clknet_4_5__leaf_h1\/gclk5:7 1e-06
25 clknet_4_5__leaf_h1\/gclk5:8 clknet_4_5__leaf_h1\/gclk5:9 0.00203718
26 h1/ff39:CK clknet_4_5__leaf_h1\/gclk5:28 1e-06
27 clknet_4_5__leaf_h1\/gclk5:28 clknet_4_5__leaf_h1\/gclk5:8 1e-06
28 clknet_4_5__leaf_h1\/gclk5:9 clknet_4_5__leaf_h1\/gclk5:10 0.00870626
29 clknet_4_5__leaf_h1\/gclk5:10 clknet_4_5__leaf_h1\/gclk5:5 0.00503577
30 clknet_4_5__leaf_h1\/gclk5:11 clknet_4_5__leaf_h1\/gclk5:5 0.00189422
*END

*D_NET clknet_4_6__leaf_h1\/gclk5 1.91977
*CONN
*I h1/ff10:CK I *D DFF_X1
*I h1/ff101:CK I *D DFF_X1
*I h1/ff117:CK I *D DFF_X1
*I h1/ff13:CK I *D DFF_X1
*I h1/ff2:CK I *D DFF_X1
*I h1/ff58:CK I *D DFF_X1
*I h1/ff70:CK I *D DFF_X1
*I h1/ff82:CK I *D DFF_X1
*I h1/clkbuf_4_6__f_h1\/gclk5:Z O *D CLKBUF_X3
*I clkload6:A I *D INV_X4
*CAP
1 clknet_4_6__leaf_h1\/gclk5:0 0.0285608
2 clknet_4_6__leaf_h1\/gclk5:1 0.0819244
3 clknet_4_6__leaf_h1\/gclk5:2 0.105224
4 clknet_4_6__leaf_h1\/gclk5:3 0.242917
5 clknet_4_6__leaf_h1\/gclk5:4 0.0214206
6 clknet_4_6__leaf_h1\/gclk5:5 0.0484218