*SPEF "ieee 1481-1999"
*DESIGN "multi_sink"
*DATE "11:11:11 Fri 11 11, 1111"
*VENDOR "The OpenROAD Project"
*PROGRAM "OpenROAD"
*VERSION "1.0"
*DESIGN_FLOW "NAME_SCOPE LOCAL" "PIN_CAP NONE"
*DIVIDER /
*DELIMITER :
*BUS_DELIMITER []
*T_UNIT 1 NS
*C_UNIT 1 FF
*R_UNIT 1 KOHM
*L_UNIT 1 HENRY

*PORTS
clk I

*D_NET clk 1.86573
*CONN
*P clk I
*I clkbuf_0_clk:A I *D CLKBUF_X3
*CAP
1 clk:0 0.932867
2 clk:1 0.932867
*RES
1 clk:0 clk:0 1e-06
2 clk clk:2 1e-06
3 clk:2 clk:3 1e-06
4 clk:3 clk:4 1e-06
5 clk:4 clk:0 1e-06
6 clk:1 clk:0 0.0383986
7 clkbuf_0_clk:A clk:6 1e-06
8 clk:6 clk:7 1e-06
9 clk:7 clk:8 1e-06
10 clk:8 clk:9 1e-06
11 clk:9 clk:1 1e-06
*END

*D_NET gclk1 0.16457
*CONN
*I gclk1:GCK O *D CLKGATE_X1
*I clkbuf_0_gclk1:A I *D CLKBUF_X3
*CAP
1 gclk1:0 0.0822849
2 gclk1:1 0.0822849
*RES
1 gclk1:0 gclk1:1 0.00338701
2 clkbuf_0_gclk1:A gclk1:2 1e-06
3 gclk1:2 gclk1:3 1e-06
4 gclk1:3 gclk1:4 1e-06
5 gclk1:4 gclk1:5 1e-06
6 gclk1:5 gclk1:0 1e-06
7 gclk1:GCK gclk1:7 1e-06
8 gclk1:7 gclk1:8 1e-06
9 gclk1:8 gclk1:9 1e-06
10 gclk1:9 gclk1:10 1e-06
11 gclk1:10 gclk1:1 1e-06
12 gclk1:1 gclk1:1 1e-06
*END

*D_NET gclk3 0.174422
*CONN
*I gclk3:GCK O *D CLKGATE_X1
*I clkbuf_0_gclk3:A I *D CLKBUF_X3
*CAP
1 gclk3:0 0.0872111
2 gclk3:1 0.0872111
*RES
1 gclk3:0 gclk3:1 0.00358978
2 clkbuf_0_gclk3:A gclk3:2 1e-06
3 gclk3:2 gclk3:3 1e-06
4 gclk3:3 gclk3:4 1e-06
5 gclk3:4 gclk3:5 1e-06
6 gclk3:5 gclk3:0 1e-06
7 gclk3:GCK gclk3:7 1e-06
8 gclk3:7 gclk3:8 1e-06
9 gclk3:8 gclk3:9 1e-06
10 gclk3:9 gclk3:10 1e-06
11 gclk3:10 gclk3:1 1e-06
12 gclk3:1 gclk3:1 1e-06
*END

*D_NET gclk4 0.395296
*CONN
*I gclk4:GCK O *D CLKGATE_X1
*I clkbuf_0_gclk4:A I *D CLKBUF_X3
*I delaybuf_0_core:A I *D CLKBUF_X3
*CAP
1 gclk4:0 0.0382598
2 gclk4:1 0.0239192
3 gclk4:2 0.135469
4 gclk4:3 0.197648
*RES
1 gclk4:0 gclk4:3 0.00157485
2 delaybuf_0_core:A gclk4:4 1e-06
3 gclk4:4 gclk4:5 1e-06
4 gclk4:5 gclk4:6 1e-06
5 gclk4:6 gclk4:7 1e-06
6 gclk4:7 gclk4:0 1e-06
7 gclk4:1 gclk4:1 1e-06
8 gclk4:GCK gclk4:9 1e-06
9 gclk4:9 gclk4:10 1e-06
10 gclk4:10 gclk4:11 1e-06
11 gclk4:11 gclk4:12 1e-06
12 gclk4:12 gclk4:1 1e-06
13 gclk4:2 gclk4:3 0.00557618
14 clkbuf_0_gclk4:A gclk4:14 1e-06
15 gclk4:14 gclk4:15 1e-06
16 gclk4:15 gclk4:16 1e-06
17 gclk4:16 gclk4:17 1e-06
18 gclk4:17 gclk4:2 1e-06
19 gclk4:3 gclk4:1 0.000984561
*END

*D_NET hi_gclk2 0.174422
*CONN
*I hi_inst\/gclk2_inst:GCK O *D CLKGATE_X1
*I clkbuf_0_hi_gclk2:A I *D CLKBUF_X3
*CAP
1 hi_gclk2:0 0.0872111
2 hi_gclk2:1 0.0872111
*RES
1 hi_gclk2:0 hi_gclk2:1 0.00358978
2 clkbuf_0_hi_gclk2:A hi_gclk2:2 1e-06
3 hi_gclk2:2 hi_gclk2:3 1e-06
4 hi_gclk2:3 hi_gclk2:4 1e-06
5 hi_gclk2:4 hi_gclk2:5 1e-06
6 hi_gclk2:5 hi_gclk2:0 1e-06
7 hi_inst\/gclk2_inst:GCK hi_gclk2:7 1e-06
8 hi_gclk2:7 hi_gclk2:8 1e-06
9 hi_gclk2:8 hi_gclk2:9 1e-06
10 hi_gclk2:9 hi_gclk2:10 1e-06
11 hi_gclk2:10 hi_gclk2:1 1e-06
12 hi_gclk2:1 hi_gclk2:1 1e-06
*END

*D_NET hi_gclk5 0.351034
*CONN
*I hi_gclk5:GCK O *D CLKGATE_X1
*I clkbuf_0_hi_gclk5:A I *D CLKBUF_X3
*CAP
1 hi_gclk5:0 0.175517
2 hi_gclk5:1 0.175517
*RES
1 hi_gclk5:0 hi_gclk5:1 0.00722462
2 clkbuf_0_hi_gclk5:A hi_gclk5:2 1e-06
3 hi_gclk5:2 hi_gclk5:3 1e-06
4 hi_gclk5:3 hi_gclk5:4 1e-06
5 hi_gclk5:4 hi_gclk5:5 1e-06
6 hi_gclk5:5 hi_gclk5:0 1e-06
7 hi_gclk5:GCK hi_gclk5:7 1e-06
8 hi_gclk5:7 hi_gclk5:8 1e-06
9 hi_gclk5:8 hi_gclk5:9 1e-06
10 hi_gclk5:9 hi_gclk5:10 1e-06
11 hi_gclk5:10 hi_gclk5:1 1e-06
12 hi_gclk5:1 hi_gclk5:1 1e-06
*END

*D_NET gclk4_regs 0.038132
*CONN
*I clkbuf_regs_0_core:Z O *D CLKBUF_X3
*I clkbuf_0_gclk4_regs:A I *D CLKBUF_X3
*CAP
1 gclk4_regs:0 0.019066
2 gclk4_regs:1 0.019066
*RES
1 gclk4_regs:0 gclk4_regs:1 0.000784795
2 clkbuf_0_gclk4_regs:A gclk4_regs:2 1e-06
3 gclk4_regs:2 gclk4_regs:3 1e-06
4 gclk4_regs:3 gclk4_regs:4 1e-06
5 gclk4_regs:4 gclk4_regs:5 1e-06
6 gclk4_regs:5 gclk4_regs:0 1e-06
7 clkbuf_regs_0_core:Z gclk4_regs:7 1e-06
8 gclk4_regs:7 gclk4_regs:8 1e-06
9 gclk4_regs:8 gclk4_regs:9 1e-06
10 gclk4_regs:9 gclk4_regs:10 1e-06
11 gclk4_regs:10 gclk4_regs:1 1e-06
12 gclk4_regs:1 gclk4_regs:1 1e-06
*END

*D_NET clknet_0_clk 0.721225
*CONN
*I clkbuf_0_clk:Z O *D CLKBUF_X3
*I clkbuf_1_0__f_clk:A I *D CLKBUF_X3
*I delaybuf_4_core:A I *D CLKBUF_X3
*CAP
1 clknet_0_clk:0 0.260064
2 clknet_0_clk:1 0.0861164
3 clknet_0_clk:2 0.0144318
4 clknet_0_clk:3 0.360612
*RES
1 clknet_0_clk:0 clknet_0_clk:3 0.0107048
2 clkbuf_1_0__f_clk:A clknet_0_clk:4 1e-06
3 clknet_0_clk:4 clknet_0_clk:5 1e-06
4 clknet_0_clk:5 clknet_0_clk:6 1e-06
5 clknet_0_clk:6 clknet_0_clk:7 1e-06
6 clknet_0_clk:7 clknet_0_clk:0 1e-06
7 clknet_0_clk:1 clknet_0_clk:3 0.00354472
8 delaybuf_4_core:A clknet_0_clk:9 1e-06
9 clknet_0_clk:9 clknet_0_clk:10 1e-06
10 clknet_0_clk:10 clknet_0_clk:11 1e-06
11 clknet_0_clk:11 clknet_0_clk:12 1e-06
12 clknet_0_clk:12 clknet_0_clk:1 1e-06
13 clknet_0_clk:2 clknet_0_clk:2 1e-06
14 clkbuf_0_clk:Z clknet_0_clk:14 1e-06
15 clknet_0_clk:14 clknet_0_clk:15 1e-06
16 clknet_0_clk:15 clknet_0_clk:16 1e-06
17 clknet_0_clk:16 clknet_0_clk:17 1e-06
18 clknet_0_clk:17 clknet_0_clk:2 1e-06
19 clknet_0_clk:3 clknet_0_clk:2 0.000594041
*END

*D_NET clknet_1_0__leaf_clk 0.521077
*CONN
*I gclk4:CK I *D CLKGATE_X1
*I clkbuf_1_0__f_clk:Z O *D CLKBUF_X3
*I delaybuf_2_core:A I *D CLKBUF_X3
*CAP
1 clknet_1_0__leaf_clk:0 0.16904
2 clknet_1_0__leaf_clk:1 0.260539
3 clknet_1_0__leaf_clk:2 0.0914987
*RES
1 clknet_1_0__leaf_clk:0 clknet_1_0__leaf_clk:1 0.00695801
2 gclk4:CK clknet_1_0__leaf_clk:3 1e-06
3 clknet_1_0__leaf_clk:3 clknet_1_0__leaf_clk:4 1e-06
4 clknet_1_0__leaf_clk:4 clknet_1_0__leaf_clk:5 1e-06
5 clknet_1_0__leaf_clk:5 clknet_1_0__leaf_clk:6 1e-06
6 clknet_1_0__leaf_clk:6 clknet_1_0__leaf_clk:0 1e-06
7 delaybuf_2_core:A clknet_1_0__leaf_clk:8 1e-06
8 clknet_1_0__leaf_clk:8 clknet_1_0__leaf_clk:9 1e-06
9 clknet_1_0__leaf_clk:9 clknet_1_0__leaf_clk:10 1e-06
10 clknet_1_0__leaf_clk:10 clknet_1_0__leaf_clk:11 1e-06
11 clknet_1_0__leaf_clk:11 clknet_1_0__leaf_clk:1 1e-06
12 clknet_1_0__leaf_clk:1 clknet_1_0__leaf_clk:2 0.00376626
13 clkbuf_1_0__f_clk:Z clknet_1_0__leaf_clk:13 1e-06
14 clknet_1_0__leaf_clk:13 clknet_1_0__leaf_clk:14 1e-06
15 clknet_1_0__leaf_clk:14 clknet_1_0__leaf_clk:15 1e-06
16 clknet_1_0__leaf_clk:15 clknet_1_0__leaf_clk:16 1e-06
17 clknet_1_0__leaf_clk:16 clknet_1_0__leaf_clk:2 1e-06
18 clknet_1_0__leaf_clk:2 clknet_1_0__leaf_clk:2 1e-06
*END

*D_NET clknet_1_1__leaf_clk 0.677619
*CONN
*I gclk1:CK I *D CLKGATE_X1
*I hi_inst\/gclk2_inst:CK I *D CLKGATE_X1
*I clkbuf_1_1__f_clk:Z O *D CLKBUF_X3
*CAP
1 clknet_1_1__leaf_clk:0 0.0242658
2 clknet_1_1__leaf_clk:1 0.0377671
3 clknet_1_1__leaf_clk:2 0.276777
4 clknet_1_1__leaf_clk:3 0.33881
*RES
1 clknet_1_1__leaf_clk:0 clknet_1_1__leaf_clk:3 0.00099883
2 hi_inst\/gclk2_inst:CK clknet_1_1__leaf_clk:4 1e-06
3 clknet_1_1__leaf_clk:4 clknet_1_1__leaf_clk:5 1e-06
4 clknet_1_1__leaf_clk:5 clknet_1_1__leaf_clk:6 1e-06
5 clknet_1_1__leaf_clk:6 clknet_1_1__leaf_clk:7 1e-06
6 clknet_1_1__leaf_clk:7 clknet_1_1__leaf_clk:0 1e-06
7 clknet_1_1__leaf_clk:1 clknet_1_1__leaf_clk:3 0.00155457
8 gclk1:CK clknet_1_1__leaf_clk:9 1e-06
9 clknet_1_1__leaf_clk:9 clknet_1_1__leaf_clk:10 1e-06
10 clknet_1_1__leaf_clk:10 clknet_1_1__leaf_clk:11 1e-06
11 clknet_1_1__leaf_clk:11 clknet_1_1__leaf_clk:12 1e-06
12 clknet_1_1__leaf_clk:12 clknet_1_1__leaf_clk:1 1e-06
13 clknet_1_1__leaf_clk:2 clknet_1_1__leaf_clk:2 1e-06
14 clkbuf_1_1__f_clk:Z clknet_1_1__leaf_clk:14 1e-06
15 clknet_1_1__leaf_clk:14 clknet_1_1__leaf_clk:15 1e-06
16 clknet_1_1__leaf_clk:15 clknet_1_1__leaf_clk:16 1e-06
17 clknet_1_1__leaf_clk:16 clknet_1_1__leaf_clk:17 1e-06
18 clknet_1_1__leaf_clk:17 clknet_1_1__leaf_clk:2 1e-06
19 clknet_1_1__leaf_clk:3 clknet_1_1__leaf_clk:2 0.0113927
*END

*D_NET clknet_0_hi_gclk2 2.82991
*CONN
*I clkbuf_0_hi_gclk2:Z O *D CLKBUF_X3
*I clkbuf_2_0__f_hi_gclk2:A I *D CLKBUF_X3
*I clkbuf_2_1__f_hi_gclk2:A I *D CLKBUF_X3
*I clkbuf_2_2__f_hi_gclk2:A I *D CLKBUF_X3
*I clkbuf_2_3__f_hi_gclk2:A I *D CLKBUF_X3
*CAP
1 clknet_0_hi_gclk2:0 0.183709
2 clknet_0_hi_gclk2:1 0.301334
3 clknet_0_hi_gclk2:2 0.574645
4 clknet_0_hi_gclk2:3 0.145741
5 clknet_0_hi_gclk2:4 0.209526
6 clknet_0_hi_gclk2:5 0.73947
7 clknet_0_hi_gclk2:6 0.675485
*RES
1 clknet_0_hi_gclk2:0 clknet_0_hi_gclk2:6 0.00756182
2 clkbuf_2_2__f_hi_gclk2:A clknet_0_hi_gclk2:7 1e-06
3 clknet_0_hi_gclk2:7 clknet_0_hi_gclk2:8 1e-06
4 clknet_0_hi_gclk2:8 clknet_0_hi_gclk2:9 1e-06
5 clknet_0_hi_gclk2:9 clknet_0_hi_gclk2:10 1e-06
6 clknet_0_hi_gclk2:10 clknet_0_hi_gclk2:0 1e-06
7 clknet_0_hi_gclk2:1 clknet_0_hi_gclk2:5 0.0124035
8 clkbuf_2_0__f_hi_gclk2:A clknet_0_hi_gclk2:12 1e-06
9 clknet_0_hi_gclk2:12 clknet_0_hi_gclk2:13 1e-06
10 clknet_0_hi_gclk2:13 clknet_0_hi_gclk2:14 1e-06
11 clknet_0_hi_gclk2:14 clknet_0_hi_gclk2:15 1e-06
12 clknet_0_hi_gclk2:15 clknet_0_hi_gclk2:1 1e-06
13 clknet_0_hi_gclk2:2 clknet_0_hi_gclk2:2 1e-06
14 clkbuf_0_hi_gclk2:Z clknet_0_hi_gclk2:17 1e-06
15 clknet_0_hi_gclk2:17 clknet_0_hi_gclk2:18 1e-06
16 clknet_0_hi_gclk2:18 clknet_0_hi_gclk2:19 1e-06
17 clknet_0_hi_gclk2:19 clknet_0_hi_gclk2:20 1e-06
18 clknet_0_hi_gclk2:20 clknet_0_hi_gclk2:2 1e-06
19 clknet_0_hi_gclk2:3 clknet_0_hi_gclk2:6 0.00599899
20 clkbuf_2_3__f_hi_gclk2:A clknet_0_hi_gclk2:22 1e-06
21 clknet_0_hi_gclk2:22 clknet_0_hi_gclk2:23 1e-06
22 clknet_0_hi_gclk2:23 clknet_0_hi_gclk2:24 1e-06
23 clknet_0_hi_gclk2:24 clknet_0_hi_gclk2:25 1e-06
24 clknet_0_hi_gclk2:25 clknet_0_hi_gclk2:3 1e-06
25 clknet_0_hi_gclk2:4 clknet_0_hi_gclk2:5 0.00862448
26 clkbuf_2_1__f_hi_gclk2:A clknet_0_hi_gclk2:27 1e-06
27 clknet_0_hi_gclk2:27 clknet_0_hi_gclk2:28 1e-06
28 clknet_0_hi_gclk2:28 clknet_0_hi_gclk2:29 1e-06
29 clknet_0_hi_gclk2:29 clknet_0_hi_gclk2:30 1e-06
30 clknet_0_hi_gclk2:30 clknet_0_hi_gclk2:4 1e-06
31 clknet_0_hi_gclk2:5 clknet_0_hi_gclk2:2 0.00941003
32 clknet_0_hi_gclk2:6 clknet_0_hi_gclk2:2 0.0142435
*END

*D_NET clknet_2_0__leaf_hi_gclk2 2.65826
*CONN
*I h1\/ff146:CK I *D DFF_X1
*I h1\/ff149:CK I *D DFF_X1
*I h1\/ff162:CK I *D DFF_X1
*I h1\/ff163:CK I *D DFF_X1
*I h1\/ff183:CK I *D DFF_X1
*I h1\/ff185:CK I *D DFF_X1
*I h1\/ff188:CK I *D DFF_X1
*I h1\/ff203:CK I *D DFF_X1
*I clkbuf_2_0__f_hi_gclk2:Z O *D CLKBUF_X3
*I clkload0:A I *D INV_X2
*CAP
1 clknet_2_0__leaf_hi_gclk2:0 0.167607
2 clknet_2_0__leaf_hi_gclk2:1 0.410374
3 clknet_2_0__leaf_hi_gclk2:2 0.0197295
4 clknet_2_0__leaf_hi_gclk2:3 0.0608044
5 clknet_2_0__leaf_hi_gclk2:4 0.164225
6 clknet_2_0__leaf_hi_gclk2:5 0.315672
7 clknet_2_0__leaf_hi_gclk2:6 0.210448
8 clknet_2_0__leaf_hi_gclk2:7 0.245491
9 clknet_2_0__leaf_hi_gclk2:8 0.539555
10 clknet_2_0__leaf_hi_gclk2:9 0.121383
11 clknet_2_0__leaf_hi_gclk2:10 0.40297
*RES
1 clknet_2_0__leaf_hi_gclk2:0 clknet_2_0__leaf_hi_gclk2:1 0.01594
2 h1\/ff146:CK clknet_2_0__leaf_hi_gclk2:11 1e-06
3 clknet_2_0__leaf_hi_gclk2:11 clknet_2_0__leaf_hi_gclk2:0 1e-06
4 h1\/ff203:CK clknet_2_0__leaf_hi_gclk2:13 1e-06
5 clknet_2_0__leaf_hi_gclk2:13 clknet_2_0__leaf_hi_gclk2:1 1e-06
6 clknet_2_0__leaf_hi_gclk2:1 clknet_2_0__leaf_hi_gclk2:8 0.023088
7 h1\/ff185:CK clknet_2_0__leaf_hi_gclk2:15 1e-06
8 clknet_2_0__leaf_hi_gclk2:15 clknet_2_0__leaf_hi_gclk2:8 1e-06
9 clknet_2_0__leaf_hi_gclk2:2 clknet_2_0__leaf_hi_gclk2:3 0.00187635
10 clkload0:A clknet_2_0__leaf_hi_gclk2:17 1e-06
11 clknet_2_0__leaf_hi_gclk2:17 clknet_2_0__leaf_hi_gclk2:2 1e-06
12 clkbuf_2_0__f_hi_gclk2:Z clknet_2_0__leaf_hi_gclk2:19 1e-06
13 clknet_2_0__leaf_hi_gclk2:19 clknet_2_0__leaf_hi_gclk2:3 1e-06
14 clknet_2_0__leaf_hi_gclk2:3 clknet_2_0__leaf_hi_gclk2:3 1e-06
15 clknet_2_0__leaf_hi_gclk2:4 clknet_2_0__leaf_hi_gclk2:5 0.0156184
16 h1\/ff149:CK clknet_2_0__leaf_hi_gclk2:21 1e-06
17 clknet_2_0__leaf_hi_gclk2:21 clknet_2_0__leaf_hi_gclk2:4 1e-06
18 h1\/ff163:CK clknet_2_0__leaf_hi_gclk2:23 1e-06
19 clknet_2_0__leaf_hi_gclk2:23 clknet_2_0__leaf_hi_gclk2:5 1e-06
20 clknet_2_0__leaf_hi_gclk2:5 clknet_2_0__leaf_hi_gclk2:6 0.0144032
21 h1\/ff183:CK clknet_2_0__leaf_hi_gclk2:25 1e-06
22 clknet_2_0__leaf_hi_gclk2:25 clknet_2_0__leaf_hi_gclk2:6 1e-06
23 clknet_2_0__leaf_hi_gclk2:6 clknet_2_0__leaf_hi_gclk2:7 0.00561118
24 h1\/ff162:CK clknet_2_0__leaf_hi_gclk2:27 1e-06
25 clknet_2_0__leaf_hi_gclk2:27 clknet_2_0__leaf_hi_gclk2:7 1e-06
26 clknet_2_0__leaf_hi_gclk2:7 clknet_2_0__leaf_hi_gclk2:10 0.00619195
27 clknet_2_0__leaf_hi_gclk2:8 clknet_2_0__leaf_hi_gclk2:10 0.0282257
28 clknet_2_0__leaf_hi_gclk2:9 clknet_2_0__leaf_hi_gclk2:7 0.011544
29 h1\/ff188:CK clknet_2_0__leaf_hi_gclk2:29 1e-06
30 clknet_2_0__leaf_hi_gclk2:29 clknet_2_0__leaf_hi_gclk2:9 1e-06
31 clknet_2_0__leaf_hi_gclk2:10 clknet_2_0__leaf_hi_gclk2:3 0.00390638
*END

*D_NET clknet_2_1__leaf_hi_gclk2 2.80121
*CONN
*I h1\/ff147:CK I *D DFF_X1
*I h1\/ff166:CK I *D DFF_X1
*I h1\/ff168:CK I *D DFF_X1
*I h1\/ff169:CK I *D DFF_X1
*I h1\/ff187:CK I *D DFF_X1
*I h1\/ff198:CK I *D DFF_X1
*I h1\/ff204:CK I *D DFF_X1
*I clkbuf_2_1__f_hi_gclk2:Z O *D CLKBUF_X3
*I clkload1:A I *D INV_X4
*CAP
1 clknet_2_1__leaf_hi_gclk2:0 0.071402
2 clknet_2_1__leaf_hi_gclk2:1 0.105224
3 clknet_2_1__leaf_hi_gclk2:2 0.105224
4 clknet_2_1__leaf_hi_gclk2:3 0.123262
5 clknet_2_1__leaf_hi_gclk2:4 0.46524
6 clknet_2_1__leaf_hi_gclk2:5 0.0525932
7 clknet_2_1__leaf_hi_gclk2:6 0.271065
8 clknet_2_1__leaf_hi_gclk2:7 0.0462234
9 clknet_2_1__leaf_hi_gclk2:8 0.121383
10 clknet_2_1__leaf_hi_gclk2:9 0.235627
11 clknet_2_1__leaf_hi_gclk2:10 0.221346
12 clknet_2_1__leaf_hi_gclk2:11 0.41866
13 clknet_2_1__leaf_hi_gclk2:12 0.563963
*RES
1 clknet_2_1__leaf_hi_gclk2:0 clknet_2_1__leaf_hi_gclk2:9 0.0067906
2 h1\/ff187:CK clknet_2_1__leaf_hi_gclk2:13 1e-06
3 clknet_2_1__leaf_hi_gclk2:13 clknet_2_1__leaf_hi_gclk2:0 1e-06
4 clknet_2_1__leaf_hi_gclk2:1 clknet_2_1__leaf_hi_gclk2:10 0.0100072
5 h1\/ff147:CK clknet_2_1__leaf_hi_gclk2:15 1e-06
6 clknet_2_1__leaf_hi_gclk2:15 clknet_2_1__leaf_hi_gclk2:1 1e-06
7 clknet_2_1__leaf_hi_gclk2:2 clknet_2_1__leaf_hi_gclk2:9 0.0100072
8 h1\/ff168:CK clknet_2_1__leaf_hi_gclk2:17 1e-06
9 clknet_2_1__leaf_hi_gclk2:17 clknet_2_1__leaf_hi_gclk2:2 1e-06
10 clknet_2_1__leaf_hi_gclk2:3 clknet_2_1__leaf_hi_gclk2:12 0.00629024
11 h1\/ff169:CK clknet_2_1__leaf_hi_gclk2:19 1e-06
12 clknet_2_1__leaf_hi_gclk2:19 clknet_2_1__leaf_hi_gclk2:3 1e-06
13 clknet_2_1__leaf_hi_gclk2:4 clknet_2_1__leaf_hi_gclk2:12 0.0442461
14 h1\/ff204:CK clknet_2_1__leaf_hi_gclk2:21 1e-06
15 clknet_2_1__leaf_hi_gclk2:21 clknet_2_1__leaf_hi_gclk2:4 1e-06
16 clknet_2_1__leaf_hi_gclk2:5 clknet_2_1__leaf_hi_gclk2:6 0.00190316
17 clkload1:A clknet_2_1__leaf_hi_gclk2:23 1e-06
18 clknet_2_1__leaf_hi_gclk2:23 clknet_2_1__leaf_hi_gclk2:5 1e-06
19 clkbuf_2_1__f_hi_gclk2:Z clknet_2_1__leaf_hi_gclk2:25 1e-06
20 clknet_2_1__leaf_hi_gclk2:25 clknet_2_1__leaf_hi_gclk2:6 1e-06
21 clknet_2_1__leaf_hi_gclk2:6 clknet_2_1__leaf_hi_gclk2:6 1e-06
22 clknet_2_1__leaf_hi_gclk2:7 clknet_2_1__leaf_hi_gclk2:11 0.00439602
23 h1\/ff198:CK clknet_2_1__leaf_hi_gclk2:27 1e-06
24 clknet_2_1__leaf_hi_gclk2:27 clknet_2_1__leaf_hi_gclk2:7 1e-06
25 clknet_2_1__leaf_hi_gclk2:8 clknet_2_1__leaf_hi_gclk2:11 0.011544
26 h1\/ff166:CK clknet_2_1__leaf_hi_gclk2:29 1e-06
27 clknet_2_1__leaf_hi_gclk2:29 clknet_2_1__leaf_hi_gclk2:8 1e-06
28 clknet_2_1__leaf_hi_gclk2:9 clknet_2_1__leaf_hi_gclk2:10 0.00561118
29 clknet_2_1__leaf_hi_gclk2:10 clknet_2_1__leaf_hi_gclk2:3 0.00543248
30 clknet_2_1__leaf_hi_gclk2:11 clknet_2_1__leaf_hi_gclk2:6 0.0238761
31 clknet_2_1__leaf_hi_gclk2:12 clknet_2_1__leaf_hi_gclk2:5 0.00309866
*END

*D_NET clknet_2_2__leaf_hi_gclk2 4.50438
*CONN
*I h1\/ff144:CK I *D DFF_X1
*I h1\/ff145:CK I *D DFF_X1
*I h1\/ff150:CK I *D DFF_X1
*I h1\/ff151:CK I *D DFF_X1
*I h1\/ff165:CK I *D DFF_X1
*I h1\/ff170:CK I *D DFF_X1
*I h1\/ff180:CK I *D DFF_X1
*I h1\/ff182:CK I *D DFF_X1
*I h1\/ff184:CK I *D DFF_X1
*I h1\/ff200:CK I *D DFF_X1
*I h1\/ff201:CK I *D DFF_X1
*I h1\/ff205:CK I *D DFF_X1
*I h1\/ff206:CK I *D DFF_X1
*I clkbuf_2_2__f_hi_gclk2:Z O *D CLKBUF_X3
*CAP
1 clknet_2_2__leaf_hi_gclk2:0 0.278092
2 clknet_2_2__leaf_hi_gclk2:1 0.504699
3 clknet_2_2__leaf_hi_gclk2:2 0.105224
4 clknet_2_2__leaf_hi_gclk2:3 0.453215
5 clknet_2_2__leaf_hi_gclk2:4 0.199926
6 clknet_2_2__leaf_hi_gclk2:5 0.0214206
7 clknet_2_2__leaf_hi_gclk2:6 0.515955
8 clknet_2_2__leaf_hi_gclk2:7 0.210448
9 clknet_2_2__leaf_hi_gclk2:8 0.105224
10 clknet_2_2__leaf_hi_gclk2:9 0.183766
11 clknet_2_2__leaf_hi_gclk2:10 0.22999
12 clknet_2_2__leaf_hi_gclk2:11 0.240888
13 clknet_2_2__leaf_hi_gclk2:12 0.295773
14 clknet_2_2__leaf_hi_gclk2:13 0.0330892
15 clknet_2_2__leaf_hi_gclk2:14 0.32657
16 clknet_2_2__leaf_hi_gclk2:15 0.491565
17 clknet_2_2__leaf_hi_gclk2:16 0.308532
*RES
1 clknet_2_2__leaf_hi_gclk2:0 clknet_2_2__leaf_hi_gclk2:1 0.0264476
2 h1\/ff165:CK clknet_2_2__leaf_hi_gclk2:17 1e-06
3 clknet_2_2__leaf_hi_gclk2:17 clknet_2_2__leaf_hi_gclk2:0 1e-06
4 h1\/ff145:CK clknet_2_2__leaf_hi_gclk2:19 1e-06
5 clknet_2_2__leaf_hi_gclk2:19 clknet_2_2__leaf_hi_gclk2:1 1e-06
6 clknet_2_2__leaf_hi_gclk2:1 clknet_2_2__leaf_hi_gclk2:3 0.0215512
7 h1\/ff205:CK clknet_2_2__leaf_hi_gclk2:21 1e-06
8 clknet_2_2__leaf_hi_gclk2:21 clknet_2_2__leaf_hi_gclk2:3 1e-06
9 clknet_2_2__leaf_hi_gclk2:2 clknet_2_2__leaf_hi_gclk2:3 0.0100072
10 h1\/ff200:CK clknet_2_2__leaf_hi_gclk2:23 1e-06
11 clknet_2_2__leaf_hi_gclk2:23 clknet_2_2__leaf_hi_gclk2:2 1e-06
12 clknet_2_2__leaf_hi_gclk2:3 clknet_2_2__leaf_hi_gclk2:6 0.011544
13 h1\/ff180:CK clknet_2_2__leaf_hi_gclk2:25 1e-06
14 clknet_2_2__leaf_hi_gclk2:25 clknet_2_2__leaf_hi_gclk2:6 1e-06
15 clknet_2_2__leaf_hi_gclk2:4 clknet_2_2__leaf_hi_gclk2:14 0.0190137
16 h1\/ff206:CK clknet_2_2__leaf_hi_gclk2:27 1e-06
17 clknet_2_2__leaf_hi_gclk2:27 clknet_2_2__leaf_hi_gclk2:4 1e-06
18 clknet_2_2__leaf_hi_gclk2:5 clknet_2_2__leaf_hi_gclk2:16 0.00203718
19 h1\/ff182:CK clknet_2_2__leaf_hi_gclk2:29 1e-06
20 clknet_2_2__leaf_hi_gclk2:29 clknet_2_2__leaf_hi_gclk2:5 1e-06
21 clknet_2_2__leaf_hi_gclk2:6 clknet_2_2__leaf_hi_gclk2:15 0.023122
22 clknet_2_2__leaf_hi_gclk2:7 clknet_2_2__leaf_hi_gclk2:6 0.0144032
23 h1\/ff144:CK clknet_2_2__leaf_hi_gclk2:31 1e-06
24 clknet_2_2__leaf_hi_gclk2:31 clknet_2_2__leaf_hi_gclk2:7 1e-06
25 clknet_2_2__leaf_hi_gclk2:8 clknet_2_2__leaf_hi_gclk2:7 0.00561118
26 h1\/ff201:CK clknet_2_2__leaf_hi_gclk2:33 1e-06
27 clknet_2_2__leaf_hi_gclk2:33 clknet_2_2__leaf_hi_gclk2:8 1e-06
28 clknet_2_2__leaf_hi_gclk2:9 clknet_2_2__leaf_hi_gclk2:10 0.0174769
29 h1\/ff151:CK clknet_2_2__leaf_hi_gclk2:35 1e-06
30 clknet_2_2__leaf_hi_gclk2:35 clknet_2_2__leaf_hi_gclk2:9 1e-06
31 h1\/ff150:CK clknet_2_2__leaf_hi_gclk2:37 1e-06
32 clknet_2_2__leaf_hi_gclk2:37 clknet_2_2__leaf_hi_gclk2:10 1e-06
33 clknet_2_2__leaf_hi_gclk2:10 clknet_2_2__leaf_hi_gclk2:14 0.00439602
34 clknet_2_2__leaf_hi_gclk2:11 clknet_2_2__leaf_hi_gclk2:16 0.0229093
35 h1\/ff170:CK clknet_2_2__leaf_hi_gclk2:39 1e-06
36 clknet_2_2__leaf_hi_gclk2:39 clknet_2_2__leaf_hi_gclk2:11 1e-06
37 clknet_2_2__leaf_hi_gclk2:12 clknet_2_2__leaf_hi_gclk2:15 0.0204808
38 h1\/ff184:CK clknet_2_2__leaf_hi_gclk2:41 1e-06
39 clknet_2_2__leaf_hi_gclk2:41 clknet_2_2__leaf_hi_gclk2:12 1e-06
40 clknet_2_2__leaf_hi_gclk2:13 clknet_2_2__leaf_hi_gclk2:13 1e-06
41 clkbuf_2_2__f_hi_gclk2:Z clknet_2_2__leaf_hi_gclk2:43 1e-06
42 clknet_2_2__leaf_hi_gclk2:43 clknet_2_2__leaf_hi_gclk2:13 1e-06
43 clknet_2_2__leaf_hi_gclk2:14 clknet_2_2__leaf_hi_gclk2:12 0.00764836
44 clknet_2_2__leaf_hi_gclk2:15 clknet_2_2__leaf_hi_gclk2:13 0.00314691
45 clknet_2_2__leaf_hi_gclk2:16 clknet_2_2__leaf_hi_gclk2:8 0.00439602
*END

*D_NET clknet_2_3__leaf_hi_gclk2 4.38483
*CONN
*I h1\/ff148:CK I *D DFF_X1
*I h1\/ff152:CK I *D DFF_X1
*I h1\/ff164:CK I *D DFF_X1
*I h1\/ff167:CK I *D DFF_X1
*I h1\/ff181:CK I *D DFF_X1
*I h1\/ff186:CK I *D DFF_X1
*I h1\/ff199:CK I *D DFF_X1
*I h1\/ff202:CK I *D DFF_X1
*I clkbuf_2_3__f_hi_gclk2:Z O *D CLKBUF_X3
*I clkload2:A I *D INV_X2
*CAP
1 clknet_2_3__leaf_hi_gclk2:0 0.211669
2 clknet_2_3__leaf_hi_gclk2:1 0.240888
3 clknet_2_3__leaf_hi_gclk2:2 0.335871
4 clknet_2_3__leaf_hi_gclk2:3 0.372136
5 clknet_2_3__leaf_hi_gclk2:4 0.0942131
6 clknet_2_3__leaf_hi_gclk2:5 0.195623
7 clknet_2_3__leaf_hi_gclk2:6 0.361538
8 clknet_2_3__leaf_hi_gclk2:7 0.126645
9 clknet_2_3__leaf_hi_gclk2:8 0.337093
10 clknet_2_3__leaf_hi_gclk2:9 0.387074
11 clknet_2_3__leaf_hi_gclk2:10 0.783167
12 clknet_2_3__leaf_hi_gclk2:11 0.640363
13 clknet_2_3__leaf_hi_gclk2:12 0.298554
*RES
1 clknet_2_3__leaf_hi_gclk2:0 clknet_2_3__leaf_hi_gclk2:11 0.0201306
2 h1\/ff186:CK clknet_2_3__leaf_hi_gclk2:13 1e-06
3 clknet_2_3__leaf_hi_gclk2:13 clknet_2_3__leaf_hi_gclk2:0 1e-06
4 clknet_2_3__leaf_hi_gclk2:1 clknet_2_3__leaf_hi_gclk2:3 0.0229093
5 h1\/ff199:CK clknet_2_3__leaf_hi_gclk2:15 1e-06
6 clknet_2_3__leaf_hi_gclk2:15 clknet_2_3__leaf_hi_gclk2:1 1e-06
7 h1\/ff181:CK clknet_2_3__leaf_hi_gclk2:17 1e-06
8 clknet_2_3__leaf_hi_gclk2:17 clknet_2_3__leaf_hi_gclk2:3 1e-06
9 clknet_2_3__leaf_hi_gclk2:2 clknet_2_3__leaf_hi_gclk2:11 0.0319426
10 h1\/ff148:CK clknet_2_3__leaf_hi_gclk2:19 1e-06
11 clknet_2_3__leaf_hi_gclk2:19 clknet_2_3__leaf_hi_gclk2:2 1e-06
12 clknet_2_3__leaf_hi_gclk2:3 clknet_2_3__leaf_hi_gclk2:12 0.0124822
13 clknet_2_3__leaf_hi_gclk2:4 clknet_2_3__leaf_hi_gclk2:5 0.00187635
14 clkload2:A clknet_2_3__leaf_hi_gclk2:21 1e-06
15 clknet_2_3__leaf_hi_gclk2:21 clknet_2_3__leaf_hi_gclk2:4 1e-06
16 clkbuf_2_3__f_hi_gclk2:Z clknet_2_3__leaf_hi_gclk2:23 1e-06
17 clknet_2_3__leaf_hi_gclk2:23 clknet_2_3__leaf_hi_gclk2:5 1e-06
18 clknet_2_3__leaf_hi_gclk2:5 clknet_2_3__leaf_hi_gclk2:5 1e-06
19 clknet_2_3__leaf_hi_gclk2:6 clknet_2_3__leaf_hi_gclk2:5 0.0167281
20 h1\/ff152:CK clknet_2_3__leaf_hi_gclk2:25 1e-06
21 clknet_2_3__leaf_hi_gclk2:25 clknet_2_3__leaf_hi_gclk2:6 1e-06
22 clknet_2_3__leaf_hi_gclk2:7 clknet_2_3__leaf_hi_gclk2:8 0.0120444
23 h1\/ff202:CK clknet_2_3__leaf_hi_gclk2:27 1e-06
24 clknet_2_3__leaf_hi_gclk2:27 clknet_2_3__leaf_hi_gclk2:7 1e-06
25 h1\/ff164:CK clknet_2_3__leaf_hi_gclk2:29 1e-06
26 clknet_2_3__leaf_hi_gclk2:29 clknet_2_3__leaf_hi_gclk2:8 1e-06
27 clknet_2_3__leaf_hi_gclk2:8 clknet_2_3__leaf_hi_gclk2:10 0.0200144
28 clknet_2_3__leaf_hi_gclk2:9 clknet_2_3__leaf_hi_gclk2:10 0.0368122
29 h1\/ff167:CK clknet_2_3__leaf_hi_gclk2:31 1e-06
30 clknet_2_3__leaf_hi_gclk2:31 clknet_2_3__leaf_hi_gclk2:9 1e-06
31 clknet_2_3__leaf_hi_gclk2:10 clknet_2_3__leaf_hi_gclk2:6 0.0176556
32 clknet_2_3__leaf_hi_gclk2:11 clknet_2_3__leaf_hi_gclk2:12 0.00882778
33 clknet_2_3__leaf_hi_gclk2:12 clknet_2_3__leaf_hi_gclk2:4 0.00708367
*END

*D_NET clknet_0_hi_gclk5 9.9521
*CONN
*I clkbuf_0_hi_gclk5:Z O *D CLKBUF_X3
*I clkbuf_4_0__f_hi_gclk5:A I *D CLKBUF_X3
*I clkbuf_4_1__f_hi_gclk5:A I *D CLKBUF_X3
*I clkbuf_4_2__f_hi_gclk5:A I *D CLKBUF_X3
*I clkbuf_4_3__f_hi_gclk5:A I *D CLKBUF_X3
*I clkbuf_4_4__f_hi_gclk5:A I *D CLKBUF_X3
*I clkbuf_4_5__f_hi_gclk5:A I *D CLKBUF_X3
*I clkbuf_4_6__f_hi_gclk5:A I *D CLKBUF_X3
*I clkbuf_4_7__f_hi_gclk5:A I *D CLKBUF_X3
*I clkbuf_4_8__f_hi_gclk5:A I *D CLKBUF_X3
*I clkbuf_4_9__f_hi_gclk5:A I *D CLKBUF_X3
*I clkbuf_4_10__f_hi_gclk5:A I *D CLKBUF_X3
*I clkbuf_4_11__f_hi_gclk5:A I *D CLKBUF_X3
*I clkbuf_4_12__f_hi_gclk5:A I *D CLKBUF_X3
*I clkbuf_4_13__f_hi_gclk5:A I *D CLKBUF_X3
*I clkbuf_4_14__f_hi_gclk5:A I *D CLKBUF_X3
*I clkbuf_4_15__f_hi_gclk5:A I *D CLKBUF_X3
*CAP
1 clknet_0_hi_gclk5:0 0.399821
2 clknet_0_hi_gclk5:1 0.51086
3 clknet_0_hi_gclk5:2 0.163822
4 clknet_0_hi_gclk5:3 0.643465
5 clknet_0_hi_gclk5:4 0.730822
6 clknet_0_hi_gclk5:5 0.755106
7 clknet_0_hi_gclk5:6 0.194565
8 clknet_0_hi_gclk5:7 0.0254335
9 clknet_0_hi_gclk5:8 0.0269114
10 clknet_0_hi_gclk5:9 0.277652
11 clknet_0_hi_gclk5:10 0.0464335
12 clknet_0_hi_gclk5:11 0.401426
13 clknet_0_hi_gclk5:12 0.141453
14 clknet_0_hi_gclk5:13 0.309599
15 clknet_0_hi_gclk5:14 0.298433
16 clknet_0_hi_gclk5:15 0.0169496
17 clknet_0_hi_gclk5:16 0.445269
18 clknet_0_hi_gclk5:17 0.668898
19 clknet_0_hi_gclk5:18 0.661035
20 clknet_0_hi_gclk5:19 0.803747
21 clknet_0_hi_gclk5:20 0.462857
22 clknet_0_hi_gclk5:21 0.733759
23 clknet_0_hi_gclk5:22 0.167197
24 clknet_0_hi_gclk5:23 0.652313
25 clknet_0_hi_gclk5:24 0.414271
*RES
1 clknet_0_hi_gclk5:0 clknet_0_hi_gclk5:19 0.0164574
2 clkbuf_4_8__f_hi_gclk5:A clknet_0_hi_gclk5:25 1e-06
3 clknet_0_hi_gclk5:25 clknet_0_hi_gclk5:26 1e-06
4 clknet_0_hi_gclk5:26 clknet_0_hi_gclk5:27 1e-06
5 clknet_0_hi_gclk5:27 clknet_0_hi_gclk5:28 1e-06
6 clknet_0_hi_gclk5:28 clknet_0_hi_gclk5:0 1e-06
7 clknet_0_hi_gclk5:1 clknet_0_hi_gclk5:4 0.021028
8 clkbuf_4_10__f_hi_gclk5:A clknet_0_hi_gclk5:30 1e-06
9 clknet_0_hi_gclk5:30 clknet_0_hi_gclk5:31 1e-06
10 clknet_0_hi_gclk5:31 clknet_0_hi_gclk5:32 1e-06
11 clknet_0_hi_gclk5:32 clknet_0_hi_gclk5:33 1e-06
12 clknet_0_hi_gclk5:33 clknet_0_hi_gclk5:1 1e-06
13 clkbuf_4_11__f_hi_gclk5:A clknet_0_hi_gclk5:35 1e-06
14 clknet_0_hi_gclk5:35 clknet_0_hi_gclk5:36 1e-06
15 clknet_0_hi_gclk5:36 clknet_0_hi_gclk5:37 1e-06
16 clknet_0_hi_gclk5:37 clknet_0_hi_gclk5:38 1e-06
17 clknet_0_hi_gclk5:38 clknet_0_hi_gclk5:4 1e-06
18 clknet_0_hi_gclk5:2 clknet_0_hi_gclk5:17 0.00674323
19 clkbuf_4_2__f_hi_gclk5:A clknet_0_hi_gclk5:40 1e-06
20 clknet_0_hi_gclk5:40 clknet_0_hi_gclk5:41 1e-06
21 clknet_0_hi_gclk5:41 clknet_0_hi_gclk5:42 1e-06
22 clknet_0_hi_gclk5:42 clknet_0_hi_gclk5:43 1e-06
23 clknet_0_hi_gclk5:43 clknet_0_hi_gclk5:2 1e-06
24 clknet_0_hi_gclk5:3 clknet_0_hi_gclk5:17 0.00650516
25 clkbuf_4_0__f_hi_gclk5:A clknet_0_hi_gclk5:45 1e-06
26 clknet_0_hi_gclk5:45 clknet_0_hi_gclk5:46 1e-06
27 clknet_0_hi_gclk5:46 clknet_0_hi_gclk5:47 1e-06
28 clknet_0_hi_gclk5:47 clknet_0_hi_gclk5:48 1e-06
29 clknet_0_hi_gclk5:48 clknet_0_hi_gclk5:3 1e-06
30 clknet_0_hi_gclk5:4 clknet_0_hi_gclk5:20 0.00905406
31 clknet_0_hi_gclk5:5 clknet_0_hi_gclk5:22 0.00474106
32 clkbuf_4_3__f_hi_gclk5:A clknet_0_hi_gclk5:50 1e-06
33 clknet_0_hi_gclk5:50 clknet_0_hi_gclk5:51 1e-06
34 clknet_0_hi_gclk5:51 clknet_0_hi_gclk5:52 1e-06
35 clknet_0_hi_gclk5:52 clknet_0_hi_gclk5:53 1e-06
36 clknet_0_hi_gclk5:53 clknet_0_hi_gclk5:5 1e-06
37 clknet_0_hi_gclk5:6 clknet_0_hi_gclk5:19 0.00457059
38 clkbuf_4_9__f_hi_gclk5:A clknet_0_hi_gclk5:55 1e-06
39 clknet_0_hi_gclk5:55 clknet_0_hi_gclk5:56 1e-06
40 clknet_0_hi_gclk5:56 clknet_0_hi_gclk5:57 1e-06
41 clknet_0_hi_gclk5:57 clknet_0_hi_gclk5:58 1e-06
42 clknet_0_hi_gclk5:58 clknet_0_hi_gclk5:6 1e-06
43 clknet_0_hi_gclk5:7 clknet_0_hi_gclk5:23 0.00104689
44 clkbuf_4_1__f_hi_gclk5:A clknet_0_hi_gclk5:60 1e-06
45 clknet_0_hi_gclk5:60 clknet_0_hi_gclk5:61 1e-06
46 clknet_0_hi_gclk5:61 clknet_0_hi_gclk5:62 1e-06
47 clknet_0_hi_gclk5:62 clknet_0_hi_gclk5:63 1e-06
48 clknet_0_hi_gclk5:63 clknet_0_hi_gclk5:7 1e-06
49 clknet_0_hi_gclk5:8 clknet_0_hi_gclk5:8 1e-06
50 clkbuf_0_hi_gclk5:Z clknet_0_hi_gclk5:65 1e-06
51 clknet_0_hi_gclk5:65 clknet_0_hi_gclk5:66 1e-06
52 clknet_0_hi_gclk5:66 clknet_0_hi_gclk5:67 1e-06
53 clknet_0_hi_gclk5:67 clknet_0_hi_gclk5:68 1e-06
54 clknet_0_hi_gclk5:68 clknet_0_hi_gclk5:8 1e-06
55 clknet_0_hi_gclk5:9 clknet_0_hi_gclk5:22 0.00103338
56 clkbuf_4_6__f_hi_gclk5:A clknet_0_hi_gclk5:70 1e-06
57 clknet_0_hi_gclk5:70 clknet_0_hi_gclk5:71 1e-06
58 clknet_0_hi_gclk5:71 clknet_0_hi_gclk5:72 1e-06
59 clknet_0_hi_gclk5:72 clknet_0_hi_gclk5:73 1e-06
60 clknet_0_hi_gclk5:73 clknet_0_hi_gclk5:9 1e-06
61 clknet_0_hi_gclk5:10 clknet_0_hi_gclk5:21 0.0019113
62 clkbuf_4_14__f_hi_gclk5:A clknet_0_hi_gclk5:75 1e-06
63 clknet_0_hi_gclk5:75 clknet_0_hi_gclk5:76 1e-06
64 clknet_0_hi_gclk5:76 clknet_0_hi_gclk5:77 1e-06
65 clknet_0_hi_gclk5:77 clknet_0_hi_gclk5:78 1e-06
66 clknet_0_hi_gclk5:78 clknet_0_hi_gclk5:10 1e-06
67 clknet_0_hi_gclk5:11 clknet_0_hi_gclk5:20 0.00655999
68 clkbuf_4_12__f_hi_gclk5:A clknet_0_hi_gclk5:80 1e-06
69 clknet_0_hi_gclk5:80 clknet_0_hi_gclk5:81 1e-06
70 clknet_0_hi_gclk5:81 clknet_0_hi_gclk5:82 1e-06
71 clknet_0_hi_gclk5:82 clknet_0_hi_gclk5:83 1e-06
72 clknet_0_hi_gclk5:83 clknet_0_hi_gclk5:11 1e-06
73 clknet_0_hi_gclk5:12 clknet_0_hi_gclk5:23 0.0058225
74 clkbuf_4_4__f_hi_gclk5:A clknet_0_hi_gclk5:85 1e-06
75 clknet_0_hi_gclk5:85 clknet_0_hi_gclk5:86 1e-06
76 clknet_0_hi_gclk5:86 clknet_0_hi_gclk5:87 1e-06
77 clknet_0_hi_gclk5:87 clknet_0_hi_gclk5:88 1e-06
78 clknet_0_hi_gclk5:88 clknet_0_hi_gclk5:12 1e-06
79 clknet_0_hi_gclk5:13 clknet_0_hi_gclk5:18 0.0127437
80 clkbuf_4_5__f_hi_gclk5:A clknet_0_hi_gclk5:90 1e-06
81 clknet_0_hi_gclk5:90 clknet_0_hi_gclk5:91 1e-06
82 clknet_0_hi_gclk5:91 clknet_0_hi_gclk5:92 1e-06
83 clknet_0_hi_gclk5:92 clknet_0_hi_gclk5:93 1e-06
84 clknet_0_hi_gclk5:93 clknet_0_hi_gclk5:13 1e-06
85 clknet_0_hi_gclk5:14 clknet_0_hi_gclk5:24 0.0122841
86 clkbuf_4_13__f_hi_gclk5:A clknet_0_hi_gclk5:95 1e-06
87 clknet_0_hi_gclk5:95 clknet_0_hi_gclk5:96 1e-06
88 clknet_0_hi_gclk5:96 clknet_0_hi_gclk5:97 1e-06
89 clknet_0_hi_gclk5:97 clknet_0_hi_gclk5:98 1e-06
90 clknet_0_hi_gclk5:98 clknet_0_hi_gclk5:14 1e-06
91 clknet_0_hi_gclk5:15 clknet_0_hi_gclk5:24 0.000697679
92 clkbuf_4_7__f_hi_gclk5:A clknet_0_hi_gclk5:100 1e-06
93 clknet_0_hi_gclk5:100 clknet_0_hi_gclk5:101 1e-06
94 clknet_0_hi_gclk5:101 clknet_0_hi_gclk5:102 1e-06
95 clknet_0_hi_gclk5:102 clknet_0_hi_gclk5:103 1e-06
96 clknet_0_hi_gclk5:103 clknet_0_hi_gclk5:15 1e-06
97 clknet_0_hi_gclk5:16 clknet_0_hi_gclk5:21 0.0183282
98 clkbuf_4_15__f_hi_gclk5:A clknet_0_hi_gclk5:105 1e-06
99 clknet_0_hi_gclk5:105 clknet_0_hi_gclk5:106 1e-06
100 clknet_0_hi_gclk5:106 clknet_0_hi_gclk5:107 1e-06
101 clknet_0_hi_gclk5:107 clknet_0_hi_gclk5:108 1e-06
102 clknet_0_hi_gclk5:108 clknet_0_hi_gclk5:16 1e-06
103 clknet_0_hi_gclk5:17 clknet_0_hi_gclk5:5 0.0142848
104 clknet_0_hi_gclk5:18 clknet_0_hi_gclk5:9 0.0103953
105 clknet_0_hi_gclk5:19 clknet_0_hi_gclk5:5 0.0120558
106 clknet_0_hi_gclk5:20 clknet_0_hi_gclk5:6 0.00343808
107 clknet_0_hi_gclk5:21 clknet_0_hi_gclk5:11 0.00996352
108 clknet_0_hi_gclk5:22 clknet_0_hi_gclk5:8 0.00110773
109 clknet_0_hi_gclk5:23 clknet_0_hi_gclk5:3 0.0199811
110 clknet_0_hi_gclk5:24 clknet_0_hi_gclk5:18 0.00407042
*END

*D_NET clknet_4_0__leaf_hi_gclk5 0.998012
*CONN
*I h1\/ff10:CK I *D DFF_X1
*I h1\/ff112:CK I *D DFF_X1
*I h1\/ff117:CK I *D DFF_X1
*I h1\/ff129:CK I *D DFF_X1
*I h1\/ff133:CK I *D DFF_X1
*I h1\/ff26:CK I *D DFF_X1
*I clkbuf_4_0__f_hi_gclk5:Z O *D CLKBUF_X3
*I clkload3:A I *D INV_X4
*CAP
1 clknet_4_0__leaf_hi_gclk5:0 0.121383
2 clknet_4_0__leaf_hi_gclk5:1 0.0192222