*SPEF "ieee 1481-1999"
*DESIGN "multi_sink"
*DATE "11:11:11 Fri 11 11, 1111"
*VENDOR "The OpenROAD Project"
*PROGRAM "OpenROAD"
*VERSION "1.0"
*DESIGN_FLOW "NAME_SCOPE LOCAL" "PIN_CAP NONE"
*DIVIDER /
*DELIMITER :
*BUS_DELIMITER []
*T_UNIT 1 NS
*C_UNIT 1 FF
*R_UNIT 1 KOHM
*L_UNIT 1 HENRY

*PORTS
clk I

*D_NET clk 1.26511
*CONN
*P clk I
*I clkbuf_0_clk:A I *D CLKBUF_X3
*CAP
1 clk:0 0.632554
2 clk:1 0.632554
*RES
1 clk:0 clk:0 1e-06
2 clk clk:2 1e-06
3 clk:2 clk:3 1e-06
4 clk:3 clk:4 1e-06
5 clk:4 clk:0 1e-06
6 clk:1 clk:0 0.0260372
7 clkbuf_0_clk:A clk:6 1e-06
8 clk:6 clk:7 1e-06
9 clk:7 clk:8 1e-06
10 clk:8 clk:9 1e-06
11 clk:9 clk:1 1e-06
*END

*D_NET gclk1 0.174422
*CONN
*I gclk1:GCK O *D CLKGATE_X1
*I clkbuf_0_gclk1:A I *D CLKBUF_X3
*CAP
1 gclk1:0 0.0872111
2 gclk1:1 0.0872111
*RES
1 gclk1:0 gclk1:1 0.00358978
2 clkbuf_0_gclk1:A gclk1:2 1e-06
3 gclk1:2 gclk1:3 1e-06
4 gclk1:3 gclk1:4 1e-06
5 gclk1:4 gclk1:5 1e-06
6 gclk1:5 gclk1:0 1e-06
7 gclk1:GCK gclk1:7 1e-06
8 gclk1:7 gclk1:8 1e-06
9 gclk1:8 gclk1:9 1e-06
10 gclk1:9 gclk1:10 1e-06
11 gclk1:10 gclk1:1 1e-06
12 gclk1:1 gclk1:1 1e-06
*END

*D_NET gclk3 0.16457
*CONN
*I gclk3:GCK O *D CLKGATE_X1
*I clkbuf_0_gclk3:A I *D CLKBUF_X3
*CAP
1 gclk3:0 0.0822849
2 gclk3:1 0.0822849
*RES
1 gclk3:0 gclk3:1 0.00338701
2 clkbuf_0_gclk3:A gclk3:2 1e-06
3 gclk3:2 gclk3:3 1e-06
4 gclk3:3 gclk3:4 1e-06
5 gclk3:4 gclk3:5 1e-06
6 gclk3:5 gclk3:0 1e-06
7 gclk3:GCK gclk3:7 1e-06
8 gclk3:7 gclk3:8 1e-06
9 gclk3:8 gclk3:9 1e-06
10 gclk3:9 gclk3:10 1e-06
11 gclk3:10 gclk3:1 1e-06
12 gclk3:1 gclk3:1 1e-06
*END

*D_NET gclk4 1.02767
*CONN
*I gclk4:GCK O *D CLKGATE_X1
*I clkbuf_0_gclk4:A I *D CLKBUF_X3
*I delaybuf_1_core:A I *D CLKBUF_X3
*CAP
1 gclk4:0 0.0479479
2 gclk4:1 0.0193762
3 gclk4:2 0.44651
4 gclk4:3 0.513834
*RES
1 gclk4:0 gclk4:3 0.00197363
2 delaybuf_1_core:A gclk4:4 1e-06
3 gclk4:4 gclk4:5 1e-06
4 gclk4:5 gclk4:6 1e-06
5 gclk4:6 gclk4:7 1e-06
6 gclk4:7 gclk4:0 1e-06
7 gclk4:1 gclk4:1 1e-06
8 gclk4:GCK gclk4:9 1e-06
9 gclk4:9 gclk4:10 1e-06
10 gclk4:10 gclk4:11 1e-06
11 gclk4:11 gclk4:12 1e-06
12 gclk4:12 gclk4:1 1e-06
13 gclk4:2 gclk4:3 0.0183792
14 clkbuf_0_gclk4:A gclk4:14 1e-06
15 gclk4:14 gclk4:15 1e-06
16 gclk4:15 gclk4:16 1e-06
17 gclk4:16 gclk4:17 1e-06
18 gclk4:17 gclk4:2 1e-06
19 gclk4:3 gclk4:1 0.000797562
*END

*D_NET hi_gclk2 0.16457
*CONN
*I hi_inst\/gclk2_inst:GCK O *D CLKGATE_X1
*I clkbuf_0_hi_gclk2:A I *D CLKBUF_X3
*CAP
1 hi_gclk2:0 0.0822849
2 hi_gclk2:1 0.0822849
*RES
1 hi_gclk2:0 hi_gclk2:1 0.00338701
2 clkbuf_0_hi_gclk2:A hi_gclk2:2 1e-06
3 hi_gclk2:2 hi_gclk2:3 1e-06
4 hi_gclk2:3 hi_gclk2:4 1e-06
5 hi_gclk2:4 hi_gclk2:5 1e-06
6 hi_gclk2:5 hi_gclk2:0 1e-06
7 hi_inst\/gclk2_inst:GCK hi_gclk2:7 1e-06
8 hi_gclk2:7 hi_gclk2:8 1e-06
9 hi_gclk2:8 hi_gclk2:9 1e-06
10 hi_gclk2:9 hi_gclk2:10 1e-06
11 hi_gclk2:10 hi_gclk2:1 1e-06
12 hi_gclk2:1 hi_gclk2:1 1e-06
*END

*D_NET hi_gclk5 0.336803
*CONN
*I hi_gclk5:GCK O *D CLKGATE_X1
*I clkbuf_0_hi_gclk5:A I *D CLKBUF_X3
*CAP
1 hi_gclk5:0 0.168401
2 hi_gclk5:1 0.168401
*RES
1 hi_gclk5:0 hi_gclk5:1 0.00693173
2 clkbuf_0_hi_gclk5:A hi_gclk5:2 1e-06
3 hi_gclk5:2 hi_gclk5:3 1e-06
4 hi_gclk5:3 hi_gclk5:4 1e-06
5 hi_gclk5:4 hi_gclk5:5 1e-06
6 hi_gclk5:5 hi_gclk5:0 1e-06
7 hi_gclk5:GCK hi_gclk5:7 1e-06
8 hi_gclk5:7 hi_gclk5:8 1e-06
9 hi_gclk5:8 hi_gclk5:9 1e-06
10 hi_gclk5:9 hi_gclk5:10 1e-06
11 hi_gclk5:10 hi_gclk5:1 1e-06
12 hi_gclk5:1 hi_gclk5:1 1e-06
*END

*D_NET gclk4_regs 0.038132
*CONN
*I clkbuf_regs_0_core:Z O *D CLKBUF_X3
*I clkbuf_0_gclk4_regs:A I *D CLKBUF_X3
*CAP
1 gclk4_regs:0 0.019066
2 gclk4_regs:1 0.019066
*RES
1 gclk4_regs:0 gclk4_regs:1 0.000784795
2 clkbuf_0_gclk4_regs:A gclk4_regs:2 1e-06
3 gclk4_regs:2 gclk4_regs:3 1e-06
4 gclk4_regs:3 gclk4_regs:4 1e-06
5 gclk4_regs:4 gclk4_regs:5 1e-06
6 gclk4_regs:5 gclk4_regs:0 1e-06
7 clkbuf_regs_0_core:Z gclk4_regs:7 1e-06
8 gclk4_regs:7 gclk4_regs:8 1e-06
9 gclk4_regs:8 gclk4_regs:9 1e-06
10 gclk4_regs:9 gclk4_regs:10 1e-06
11 gclk4_regs:10 gclk4_regs:1 1e-06
12 gclk4_regs:1 gclk4_regs:1 1e-06
*END

*D_NET clknet_0_clk 0.763772
*CONN
*I clkbuf_0_clk:Z O *D CLKBUF_X3
*I clkbuf_1_0__f_clk:A I *D CLKBUF_X3
*I delaybuf_5_core:A I *D CLKBUF_X3
*CAP
1 clknet_0_clk:0 0.260082
2 clknet_0_clk:1 0.10739
3 clknet_0_clk:2 0.0144135
4 clknet_0_clk:3 0.381886
*RES
1 clknet_0_clk:0 clknet_0_clk:3 0.0107055
2 clkbuf_1_0__f_clk:A clknet_0_clk:4 1e-06
3 clknet_0_clk:4 clknet_0_clk:5 1e-06
4 clknet_0_clk:5 clknet_0_clk:6 1e-06
5 clknet_0_clk:6 clknet_0_clk:7 1e-06
6 clknet_0_clk:7 clknet_0_clk:0 1e-06
7 clknet_0_clk:1 clknet_0_clk:3 0.00442039
8 delaybuf_5_core:A clknet_0_clk:9 1e-06
9 clknet_0_clk:9 clknet_0_clk:10 1e-06
10 clknet_0_clk:10 clknet_0_clk:11 1e-06
11 clknet_0_clk:11 clknet_0_clk:12 1e-06
12 clknet_0_clk:12 clknet_0_clk:1 1e-06
13 clknet_0_clk:2 clknet_0_clk:2 1e-06
14 clkbuf_0_clk:Z clknet_0_clk:14 1e-06
15 clknet_0_clk:14 clknet_0_clk:15 1e-06
16 clknet_0_clk:15 clknet_0_clk:16 1e-06
17 clknet_0_clk:16 clknet_0_clk:17 1e-06
18 clknet_0_clk:17 clknet_0_clk:2 1e-06
19 clknet_0_clk:3 clknet_0_clk:2 0.00059329
*END

*D_NET clknet_1_0__leaf_clk 0.447367
*CONN
*I gclk4:CK I *D CLKGATE_X1
*I clkbuf_1_0__f_clk:Z O *D CLKBUF_X3
*I delaybuf_2_core:A I *D CLKBUF_X3
*CAP
1 clknet_1_0__leaf_clk:0 0.130196
2 clknet_1_0__leaf_clk:1 0.223684
3 clknet_1_0__leaf_clk:2 0.0934874
*RES
1 clknet_1_0__leaf_clk:0 clknet_1_0__leaf_clk:1 0.00535914
2 gclk4:CK clknet_1_0__leaf_clk:3 1e-06
3 clknet_1_0__leaf_clk:3 clknet_1_0__leaf_clk:4 1e-06
4 clknet_1_0__leaf_clk:4 clknet_1_0__leaf_clk:5 1e-06
5 clknet_1_0__leaf_clk:5 clknet_1_0__leaf_clk:6 1e-06
6 clknet_1_0__leaf_clk:6 clknet_1_0__leaf_clk:0 1e-06
7 delaybuf_2_core:A clknet_1_0__leaf_clk:8 1e-06
8 clknet_1_0__leaf_clk:8 clknet_1_0__leaf_clk:9 1e-06
9 clknet_1_0__leaf_clk:9 clknet_1_0__leaf_clk:10 1e-06
10 clknet_1_0__leaf_clk:10 clknet_1_0__leaf_clk:11 1e-06
11 clknet_1_0__leaf_clk:11 clknet_1_0__leaf_clk:1 1e-06
12 clknet_1_0__leaf_clk:1 clknet_1_0__leaf_clk:2 0.00384812
13 clkbuf_1_0__f_clk:Z clknet_1_0__leaf_clk:13 1e-06
14 clknet_1_0__leaf_clk:13 clknet_1_0__leaf_clk:14 1e-06
15 clknet_1_0__leaf_clk:14 clknet_1_0__leaf_clk:15 1e-06
16 clknet_1_0__leaf_clk:15 clknet_1_0__leaf_clk:16 1e-06
17 clknet_1_0__leaf_clk:16 clknet_1_0__leaf_clk:2 1e-06
18 clknet_1_0__leaf_clk:2 clknet_1_0__leaf_clk:2 1e-06
*END

*D_NET clknet_1_1__leaf_clk 0.505861
*CONN
*I hi_gclk5:CK I *D CLKGATE_X1
*I clkbuf_1_1__f_clk:Z O *D CLKBUF_X3
*I delaybuf_0_core:A I *D CLKBUF_X3
*CAP
1 clknet_1_1__leaf_clk:0 0.0314361
2 clknet_1_1__leaf_clk:1 0.103358
3 clknet_1_1__leaf_clk:2 0.118136
4 clknet_1_1__leaf_clk:3 0.25293
*RES
1 clknet_1_1__leaf_clk:0 clknet_1_1__leaf_clk:3 0.00129397
2 delaybuf_0_core:A clknet_1_1__leaf_clk:4 1e-06
3 clknet_1_1__leaf_clk:4 clknet_1_1__leaf_clk:5 1e-06
4 clknet_1_1__leaf_clk:5 clknet_1_1__leaf_clk:6 1e-06
5 clknet_1_1__leaf_clk:6 clknet_1_1__leaf_clk:7 1e-06
6 clknet_1_1__leaf_clk:7 clknet_1_1__leaf_clk:0 1e-06
7 clknet_1_1__leaf_clk:1 clknet_1_1__leaf_clk:1 1e-06
8 clkbuf_1_1__f_clk:Z clknet_1_1__leaf_clk:9 1e-06
9 clknet_1_1__leaf_clk:9 clknet_1_1__leaf_clk:10 1e-06
10 clknet_1_1__leaf_clk:10 clknet_1_1__leaf_clk:11 1e-06
11 clknet_1_1__leaf_clk:11 clknet_1_1__leaf_clk:12 1e-06
12 clknet_1_1__leaf_clk:12 clknet_1_1__leaf_clk:1 1e-06
13 clknet_1_1__leaf_clk:2 clknet_1_1__leaf_clk:3 0.00486272
14 hi_gclk5:CK clknet_1_1__leaf_clk:14 1e-06
15 clknet_1_1__leaf_clk:14 clknet_1_1__leaf_clk:15 1e-06
16 clknet_1_1__leaf_clk:15 clknet_1_1__leaf_clk:16 1e-06
17 clknet_1_1__leaf_clk:16 clknet_1_1__leaf_clk:17 1e-06
18 clknet_1_1__leaf_clk:17 clknet_1_1__leaf_clk:2 1e-06
19 clknet_1_1__leaf_clk:3 clknet_1_1__leaf_clk:1 0.00425442
*END

*D_NET clknet_0_hi_gclk2 3.60521
*CONN
*I clkbuf_0_hi_gclk2:Z O *D CLKBUF_X3
*I clkbuf_2_0__f_hi_gclk2:A I *D CLKBUF_X3
*I clkbuf_2_1__f_hi_gclk2:A I *D CLKBUF_X3
*I clkbuf_2_2__f_hi_gclk2:A I *D CLKBUF_X3
*I clkbuf_2_3__f_hi_gclk2:A I *D CLKBUF_X3
*CAP
1 clknet_0_hi_gclk2:0 0.382707
2 clknet_0_hi_gclk2:1 0.128153
3 clknet_0_hi_gclk2:2 0.780904
4 clknet_0_hi_gclk2:3 0.142092
5 clknet_0_hi_gclk2:4 0.36875
6 clknet_0_hi_gclk2:5 0.88928
7 clknet_0_hi_gclk2:6 0.913326
*RES
1 clknet_0_hi_gclk2:0 clknet_0_hi_gclk2:6 0.015753
2 clkbuf_2_1__f_hi_gclk2:A clknet_0_hi_gclk2:7 1e-06
3 clknet_0_hi_gclk2:7 clknet_0_hi_gclk2:8 1e-06
4 clknet_0_hi_gclk2:8 clknet_0_hi_gclk2:9 1e-06
5 clknet_0_hi_gclk2:9 clknet_0_hi_gclk2:10 1e-06
6 clknet_0_hi_gclk2:10 clknet_0_hi_gclk2:0 1e-06
7 clknet_0_hi_gclk2:1 clknet_0_hi_gclk2:6 0.00527502
8 clkbuf_2_0__f_hi_gclk2:A clknet_0_hi_gclk2:12 1e-06
9 clknet_0_hi_gclk2:12 clknet_0_hi_gclk2:13 1e-06
10 clknet_0_hi_gclk2:13 clknet_0_hi_gclk2:14 1e-06
11 clknet_0_hi_gclk2:14 clknet_0_hi_gclk2:15 1e-06
12 clknet_0_hi_gclk2:15 clknet_0_hi_gclk2:1 1e-06
13 clknet_0_hi_gclk2:2 clknet_0_hi_gclk2:2 1e-06
14 clkbuf_0_hi_gclk2:Z clknet_0_hi_gclk2:17 1e-06
15 clknet_0_hi_gclk2:17 clknet_0_hi_gclk2:18 1e-06
16 clknet_0_hi_gclk2:18 clknet_0_hi_gclk2:19 1e-06
17 clknet_0_hi_gclk2:19 clknet_0_hi_gclk2:20 1e-06
18 clknet_0_hi_gclk2:20 clknet_0_hi_gclk2:2 1e-06
19 clknet_0_hi_gclk2:3 clknet_0_hi_gclk2:5 0.00584879
20 clkbuf_2_2__f_hi_gclk2:A clknet_0_hi_gclk2:22 1e-06
21 clknet_0_hi_gclk2:22 clknet_0_hi_gclk2:23 1e-06
22 clknet_0_hi_gclk2:23 clknet_0_hi_gclk2:24 1e-06
23 clknet_0_hi_gclk2:24 clknet_0_hi_gclk2:25 1e-06
24 clknet_0_hi_gclk2:25 clknet_0_hi_gclk2:3 1e-06
25 clknet_0_hi_gclk2:4 clknet_0_hi_gclk2:5 0.0151785
26 clkbuf_2_3__f_hi_gclk2:A clknet_0_hi_gclk2:27 1e-06
27 clknet_0_hi_gclk2:27 clknet_0_hi_gclk2:28 1e-06
28 clknet_0_hi_gclk2:28 clknet_0_hi_gclk2:29 1e-06
29 clknet_0_hi_gclk2:29 clknet_0_hi_gclk2:30 1e-06
30 clknet_0_hi_gclk2:30 clknet_0_hi_gclk2:4 1e-06
31 clknet_0_hi_gclk2:5 clknet_0_hi_gclk2:2 0.0155772
32 clknet_0_hi_gclk2:6 clknet_0_hi_gclk2:2 0.0165663
*END

*D_NET clknet_2_0__leaf_hi_gclk2 1.45228
*CONN
*I h1\/ff144:CK I *D DFF_X1
*I h1\/ff151:CK I *D DFF_X1
*I h1\/ff163:CK I *D DFF_X1
*I h1\/ff169:CK I *D DFF_X1
*I h1\/ff170:CK I *D DFF_X1
*I h1\/ff187:CK I *D DFF_X1
*I h1\/ff203:CK I *D DFF_X1
*I clkbuf_2_0__f_hi_gclk2:Z O *D CLKBUF_X3
*I clkload0:A I *D INV_X2
*CAP
1 clknet_2_0__leaf_hi_gclk2:0 0.0898162
2 clknet_2_0__leaf_hi_gclk2:1 0.109452
3 clknet_2_0__leaf_hi_gclk2:2 9.395e-05
4 clknet_2_0__leaf_hi_gclk2:3 0.226607
5 clknet_2_0__leaf_hi_gclk2:4 0.163379
6 clknet_2_0__leaf_hi_gclk2:5 0.226607
7 clknet_2_0__leaf_hi_gclk2:6 0.226607
8 clknet_2_0__leaf_hi_gclk2:7 0.0462234
9 clknet_2_0__leaf_hi_gclk2:8 0.226607
10 clknet_2_0__leaf_hi_gclk2:9 0.136885
*RES
1 clknet_2_0__leaf_hi_gclk2:0 clknet_2_0__leaf_hi_gclk2:1 0.00854186
2 h1\/ff169:CK clknet_2_0__leaf_hi_gclk2:10 1e-06
3 clknet_2_0__leaf_hi_gclk2:10 clknet_2_0__leaf_hi_gclk2:0 1e-06
4 clkload0:A clknet_2_0__leaf_hi_gclk2:12 1e-06
5 clknet_2_0__leaf_hi_gclk2:12 clknet_2_0__leaf_hi_gclk2:1 1e-06
6 clknet_2_0__leaf_hi_gclk2:1 clknet_2_0__leaf_hi_gclk2:9 0.00186741
7 clknet_2_0__leaf_hi_gclk2:2 clknet_2_0__leaf_hi_gclk2:2 1e-06
8 clkbuf_2_0__f_hi_gclk2:Z clknet_2_0__leaf_hi_gclk2:14 1e-06
9 clknet_2_0__leaf_hi_gclk2:14 clknet_2_0__leaf_hi_gclk2:2 1e-06
10 clknet_2_0__leaf_hi_gclk2:3 clknet_2_0__leaf_hi_gclk2:4 0.00439602
11 h1\/ff203:CK clknet_2_0__leaf_hi_gclk2:16 1e-06
12 clknet_2_0__leaf_hi_gclk2:16 clknet_2_0__leaf_hi_gclk2:3 1e-06
13 h1\/ff163:CK clknet_2_0__leaf_hi_gclk2:18 1e-06
14 clknet_2_0__leaf_hi_gclk2:18 clknet_2_0__leaf_hi_gclk2:4 1e-06
15 clknet_2_0__leaf_hi_gclk2:4 clknet_2_0__leaf_hi_gclk2:9 0.0111419
16 clknet_2_0__leaf_hi_gclk2:5 clknet_2_0__leaf_hi_gclk2:6 0.00439602
17 h1\/ff187:CK clknet_2_0__leaf_hi_gclk2:20 1e-06
18 clknet_2_0__leaf_hi_gclk2:20 clknet_2_0__leaf_hi_gclk2:5 1e-06
19 h1\/ff151:CK clknet_2_0__leaf_hi_gclk2:22 1e-06
20 clknet_2_0__leaf_hi_gclk2:22 clknet_2_0__leaf_hi_gclk2:6 1e-06
21 clknet_2_0__leaf_hi_gclk2:6 clknet_2_0__leaf_hi_gclk2:3 0.0171552
22 clknet_2_0__leaf_hi_gclk2:7 clknet_2_0__leaf_hi_gclk2:8 0.00439602
23 h1\/ff170:CK clknet_2_0__leaf_hi_gclk2:24 1e-06
24 clknet_2_0__leaf_hi_gclk2:24 clknet_2_0__leaf_hi_gclk2:7 1e-06
25 h1\/ff144:CK clknet_2_0__leaf_hi_gclk2:26 1e-06
26 clknet_2_0__leaf_hi_gclk2:26 clknet_2_0__leaf_hi_gclk2:8 1e-06
27 clknet_2_0__leaf_hi_gclk2:8 clknet_2_0__leaf_hi_gclk2:5 0.0171552
28 clknet_2_0__leaf_hi_gclk2:9 clknet_2_0__leaf_hi_gclk2:2 8.935e-06
*END

*D_NET clknet_2_1__leaf_hi_gclk2 2.37524
*CONN
*I h1\/ff148:CK I *D DFF_X1
*I h1\/ff149:CK I *D DFF_X1
*I h1\/ff162:CK I *D DFF_X1
*I h1\/ff167:CK I *D DFF_X1
*I h1\/ff183:CK I *D DFF_X1
*I h1\/ff184:CK I *D DFF_X1
*I h1\/ff186:CK I *D DFF_X1
*I h1\/ff200:CK I *D DFF_X1
*I h1\/ff201:CK I *D DFF_X1
*I clkbuf_2_1__f_hi_gclk2:Z O *D CLKBUF_X3
*I clkload1:A I *D INV_X1
*CAP
1 clknet_2_1__leaf_hi_gclk2:0 0.226607
2 clknet_2_1__leaf_hi_gclk2:1 0.453215
3 clknet_2_1__leaf_hi_gclk2:2 0.226607
4 clknet_2_1__leaf_hi_gclk2:3 0.285608
5 clknet_2_1__leaf_hi_gclk2:4 0.232996
6 clknet_2_1__leaf_hi_gclk2:5 0.226607
7 clknet_2_1__leaf_hi_gclk2:6 0.0240512
8 clknet_2_1__leaf_hi_gclk2:7 0.0605977
9 clknet_2_1__leaf_hi_gclk2:8 9.395e-05
10 clknet_2_1__leaf_hi_gclk2:9 0.0590006
11 clknet_2_1__leaf_hi_gclk2:10 0.190061
12 clknet_2_1__leaf_hi_gclk2:11 0.238633
13 clknet_2_1__leaf_hi_gclk2:12 0.151166
*RES
1 clknet_2_1__leaf_hi_gclk2:0 clknet_2_1__leaf_hi_gclk2:1 0.0215512
2 h1\/ff183:CK clknet_2_1__leaf_hi_gclk2:13 1e-06
3 clknet_2_1__leaf_hi_gclk2:13 clknet_2_1__leaf_hi_gclk2:0 1e-06
4 h1\/ff167:CK clknet_2_1__leaf_hi_gclk2:15 1e-06
5 clknet_2_1__leaf_hi_gclk2:15 clknet_2_1__leaf_hi_gclk2:1 1e-06
6 clknet_2_1__leaf_hi_gclk2:1 clknet_2_1__leaf_hi_gclk2:3 0.0215512
7 h1\/ff162:CK clknet_2_1__leaf_hi_gclk2:17 1e-06
8 clknet_2_1__leaf_hi_gclk2:17 clknet_2_1__leaf_hi_gclk2:3 1e-06
9 clknet_2_1__leaf_hi_gclk2:2 clknet_2_1__leaf_hi_gclk2:5 0.01594
10 h1\/ff201:CK clknet_2_1__leaf_hi_gclk2:19 1e-06
11 clknet_2_1__leaf_hi_gclk2:19 clknet_2_1__leaf_hi_gclk2:2 1e-06
12 h1\/ff149:CK clknet_2_1__leaf_hi_gclk2:21 1e-06
13 clknet_2_1__leaf_hi_gclk2:21 clknet_2_1__leaf_hi_gclk2:5 1e-06
14 clknet_2_1__leaf_hi_gclk2:3 clknet_2_1__leaf_hi_gclk2:2 0.00561118
15 clknet_2_1__leaf_hi_gclk2:4 clknet_2_1__leaf_hi_gclk2:11 0.0165476
16 h1\/ff186:CK clknet_2_1__leaf_hi_gclk2:23 1e-06
17 clknet_2_1__leaf_hi_gclk2:23 clknet_2_1__leaf_hi_gclk2:4 1e-06
18 clknet_2_1__leaf_hi_gclk2:5 clknet_2_1__leaf_hi_gclk2:4 0.00561118
19 clknet_2_1__leaf_hi_gclk2:6 clknet_2_1__leaf_hi_gclk2:11 0.00228736
20 h1\/ff200:CK clknet_2_1__leaf_hi_gclk2:25 1e-06
21 clknet_2_1__leaf_hi_gclk2:25 clknet_2_1__leaf_hi_gclk2:6 1e-06
22 clknet_2_1__leaf_hi_gclk2:7 clknet_2_1__leaf_hi_gclk2:12 0.00190316
23 clkload1:A clknet_2_1__leaf_hi_gclk2:27 1e-06
24 clknet_2_1__leaf_hi_gclk2:27 clknet_2_1__leaf_hi_gclk2:7 1e-06
25 clknet_2_1__leaf_hi_gclk2:8 clknet_2_1__leaf_hi_gclk2:8 1e-06
26 clkbuf_2_1__f_hi_gclk2:Z clknet_2_1__leaf_hi_gclk2:29 1e-06
27 clknet_2_1__leaf_hi_gclk2:29 clknet_2_1__leaf_hi_gclk2:8 1e-06
28 clknet_2_1__leaf_hi_gclk2:9 clknet_2_1__leaf_hi_gclk2:10 0.00561118
29 h1\/ff184:CK clknet_2_1__leaf_hi_gclk2:31 1e-06
30 clknet_2_1__leaf_hi_gclk2:31 clknet_2_1__leaf_hi_gclk2:9 1e-06
31 h1\/ff148:CK clknet_2_1__leaf_hi_gclk2:33 1e-06
32 clknet_2_1__leaf_hi_gclk2:33 clknet_2_1__leaf_hi_gclk2:10 1e-06
33 clknet_2_1__leaf_hi_gclk2:10 clknet_2_1__leaf_hi_gclk2:12 0.0124643
34 clknet_2_1__leaf_hi_gclk2:11 clknet_2_1__leaf_hi_gclk2:7 0.00385992
35 clknet_2_1__leaf_hi_gclk2:12 clknet_2_1__leaf_hi_gclk2:8 8.935e-06
*END

*D_NET clknet_2_2__leaf_hi_gclk2 2.02331
*CONN
*I h1\/ff145:CK I *D DFF_X1
*I h1\/ff150:CK I *D DFF_X1
*I h1\/ff164:CK I *D DFF_X1
*I h1\/ff165:CK I *D DFF_X1
*I h1\/ff168:CK I *D DFF_X1
*I h1\/ff180:CK I *D DFF_X1
*I h1\/ff188:CK I *D DFF_X1
*I h1\/ff202:CK I *D DFF_X1
*I h1\/ff205:CK I *D DFF_X1
*I clkbuf_2_2__f_hi_gclk2:Z O *D CLKBUF_X3
*I clkload2:A I *D INV_X1
*CAP
1 clknet_2_2__leaf_hi_gclk2:0 0.0590006
2 clknet_2_2__leaf_hi_gclk2:1 0.285608
3 clknet_2_2__leaf_hi_gclk2:2 0.272831
4 clknet_2_2__leaf_hi_gclk2:3 0.226607
5 clknet_2_2__leaf_hi_gclk2:4 0.226607
6 clknet_2_2__leaf_hi_gclk2:5 0.226607
7 clknet_2_2__leaf_hi_gclk2:6 0.226607
8 clknet_2_2__leaf_hi_gclk2:7 0.127565
9 clknet_2_2__leaf_hi_gclk2:8 0.101447
10 clknet_2_2__leaf_hi_gclk2:9 0.145266
11 clknet_2_2__leaf_hi_gclk2:10 0.12516
*RES
1 clknet_2_2__leaf_hi_gclk2:0 clknet_2_2__leaf_hi_gclk2:1 0.00561118
2 h1\/ff205:CK clknet_2_2__leaf_hi_gclk2:11 1e-06
3 clknet_2_2__leaf_hi_gclk2:11 clknet_2_2__leaf_hi_gclk2:0 1e-06
4 h1\/ff165:CK clknet_2_2__leaf_hi_gclk2:13 1e-06
5 clknet_2_2__leaf_hi_gclk2:13 clknet_2_2__leaf_hi_gclk2:1 1e-06
6 clknet_2_2__leaf_hi_gclk2:1 clknet_2_2__leaf_hi_gclk2:2 0.0215512
7 h1\/ff180:CK clknet_2_2__leaf_hi_gclk2:15 1e-06
8 clknet_2_2__leaf_hi_gclk2:15 clknet_2_2__leaf_hi_gclk2:2 1e-06
9 clknet_2_2__leaf_hi_gclk2:2 clknet_2_2__leaf_hi_gclk2:3 0.00439602
10 h1\/ff145:CK clknet_2_2__leaf_hi_gclk2:17 1e-06
11 clknet_2_2__leaf_hi_gclk2:17 clknet_2_2__leaf_hi_gclk2:3 1e-06
12 clknet_2_2__leaf_hi_gclk2:3 clknet_2_2__leaf_hi_gclk2:4 0.0171552
13 h1\/ff188:CK clknet_2_2__leaf_hi_gclk2:19 1e-06
14 clknet_2_2__leaf_hi_gclk2:19 clknet_2_2__leaf_hi_gclk2:4 1e-06
15 clknet_2_2__leaf_hi_gclk2:4 clknet_2_2__leaf_hi_gclk2:5 0.00439602
16 h1\/ff150:CK clknet_2_2__leaf_hi_gclk2:21 1e-06
17 clknet_2_2__leaf_hi_gclk2:21 clknet_2_2__leaf_hi_gclk2:5 1e-06
18 clknet_2_2__leaf_hi_gclk2:5 clknet_2_2__leaf_hi_gclk2:6 0.0171552
19 h1\/ff202:CK clknet_2_2__leaf_hi_gclk2:23 1e-06
20 clknet_2_2__leaf_hi_gclk2:23 clknet_2_2__leaf_hi_gclk2:6 1e-06
21 clknet_2_2__leaf_hi_gclk2:6 clknet_2_2__leaf_hi_gclk2:7 0.00439602
22 h1\/ff164:CK clknet_2_2__leaf_hi_gclk2:25 1e-06
23 clknet_2_2__leaf_hi_gclk2:25 clknet_2_2__leaf_hi_gclk2:7 1e-06
24 clknet_2_2__leaf_hi_gclk2:7 clknet_2_2__leaf_hi_gclk2:8 0.00773592
25 clkload2:A clknet_2_2__leaf_hi_gclk2:27 1e-06
26 clknet_2_2__leaf_hi_gclk2:27 clknet_2_2__leaf_hi_gclk2:8 1e-06
27 clknet_2_2__leaf_hi_gclk2:8 clknet_2_2__leaf_hi_gclk2:9 0.00191209
28 clkbuf_2_2__f_hi_gclk2:Z clknet_2_2__leaf_hi_gclk2:29 1e-06
29 clknet_2_2__leaf_hi_gclk2:29 clknet_2_2__leaf_hi_gclk2:9 1e-06
30 clknet_2_2__leaf_hi_gclk2:9 clknet_2_2__leaf_hi_gclk2:9 1e-06
31 clknet_2_2__leaf_hi_gclk2:10 clknet_2_2__leaf_hi_gclk2:9 0.0119032
32 h1\/ff168:CK clknet_2_2__leaf_hi_gclk2:31 1e-06
33 clknet_2_2__leaf_hi_gclk2:31 clknet_2_2__leaf_hi_gclk2:10 1e-06
*END

*D_NET clknet_2_3__leaf_hi_gclk2 2.22455
*CONN
*I h1\/ff146:CK I *D DFF_X1
*I h1\/ff147:CK I *D DFF_X1
*I h1\/ff152:CK I *D DFF_X1
*I h1\/ff166:CK I *D DFF_X1
*I h1\/ff181:CK I *D DFF_X1
*I h1\/ff182:CK I *D DFF_X1
*I h1\/ff185:CK I *D DFF_X1
*I h1\/ff198:CK I *D DFF_X1
*I h1\/ff199:CK I *D DFF_X1
*I h1\/ff204:CK I *D DFF_X1
*I h1\/ff206:CK I *D DFF_X1
*I clkbuf_2_3__f_hi_gclk2:Z O *D CLKBUF_X3
*CAP
1 clknet_2_3__leaf_hi_gclk2:0 0.0590006
2 clknet_2_3__leaf_hi_gclk2:1 0.174334
3 clknet_2_3__leaf_hi_gclk2:2 0.180666
4 clknet_2_3__leaf_hi_gclk2:3 0.013059
5 clknet_2_3__leaf_hi_gclk2:4 0.120726
6 clknet_2_3__leaf_hi_gclk2:5 0.226607
7 clknet_2_3__leaf_hi_gclk2:6 0.226607
8 clknet_2_3__leaf_hi_gclk2:7 0.226607
9 clknet_2_3__leaf_hi_gclk2:8 0.226607
10 clknet_2_3__leaf_hi_gclk2:9 0.272831
11 clknet_2_3__leaf_hi_gclk2:10 0.285608
12 clknet_2_3__leaf_hi_gclk2:11 0.0590006
13 clknet_2_3__leaf_hi_gclk2:12 0.152894
*RES
1 clknet_2_3__leaf_hi_gclk2:0 clknet_2_3__leaf_hi_gclk2:1 0.00561118
2 h1\/ff185:CK clknet_2_3__leaf_hi_gclk2:13 1e-06
3 clknet_2_3__leaf_hi_gclk2:13 clknet_2_3__leaf_hi_gclk2:0 1e-06
4 h1\/ff147:CK clknet_2_3__leaf_hi_gclk2:15 1e-06
5 clknet_2_3__leaf_hi_gclk2:15 clknet_2_3__leaf_hi_gclk2:1 1e-06
6 clknet_2_3__leaf_hi_gclk2:1 clknet_2_3__leaf_hi_gclk2:2 0.0109686
7 clkbuf_2_3__f_hi_gclk2:Z clknet_2_3__leaf_hi_gclk2:17 1e-06
8 clknet_2_3__leaf_hi_gclk2:17 clknet_2_3__leaf_hi_gclk2:2 1e-06
9 clknet_2_3__leaf_hi_gclk2:2 clknet_2_3__leaf_hi_gclk2:2 1e-06
10 clknet_2_3__leaf_hi_gclk2:3 clknet_2_3__leaf_hi_gclk2:12 0.00124197
11 h1\/ff199:CK clknet_2_3__leaf_hi_gclk2:19 1e-06
12 clknet_2_3__leaf_hi_gclk2:19 clknet_2_3__leaf_hi_gclk2:3 1e-06
13 clknet_2_3__leaf_hi_gclk2:4 clknet_2_3__leaf_hi_gclk2:12 0.00708546
14 h1\/ff182:CK clknet_2_3__leaf_hi_gclk2:21 1e-06
15 clknet_2_3__leaf_hi_gclk2:21 clknet_2_3__leaf_hi_gclk2:4 1e-06
16 clknet_2_3__leaf_hi_gclk2:5 clknet_2_3__leaf_hi_gclk2:4 0.00439602
17 h1\/ff146:CK clknet_2_3__leaf_hi_gclk2:23 1e-06
18 clknet_2_3__leaf_hi_gclk2:23 clknet_2_3__leaf_hi_gclk2:5 1e-06
19 clknet_2_3__leaf_hi_gclk2:6 clknet_2_3__leaf_hi_gclk2:5 0.0171552
20 h1\/ff198:CK clknet_2_3__leaf_hi_gclk2:25 1e-06
21 clknet_2_3__leaf_hi_gclk2:25 clknet_2_3__leaf_hi_gclk2:6 1e-06
22 clknet_2_3__leaf_hi_gclk2:7 clknet_2_3__leaf_hi_gclk2:6 0.00439602
23 h1\/ff152:CK clknet_2_3__leaf_hi_gclk2:27 1e-06
24 clknet_2_3__leaf_hi_gclk2:27 clknet_2_3__leaf_hi_gclk2:7 1e-06
25 clknet_2_3__leaf_hi_gclk2:8 clknet_2_3__leaf_hi_gclk2:7 0.0171552
26 h1\/ff204:CK clknet_2_3__leaf_hi_gclk2:29 1e-06
27 clknet_2_3__leaf_hi_gclk2:29 clknet_2_3__leaf_hi_gclk2:8 1e-06
28 clknet_2_3__leaf_hi_gclk2:9 clknet_2_3__leaf_hi_gclk2:8 0.00439602
29 h1\/ff166:CK clknet_2_3__leaf_hi_gclk2:31 1e-06
30 clknet_2_3__leaf_hi_gclk2:31 clknet_2_3__leaf_hi_gclk2:9 1e-06
31 clknet_2_3__leaf_hi_gclk2:10 clknet_2_3__leaf_hi_gclk2:9 0.0215512
32 h1\/ff181:CK clknet_2_3__leaf_hi_gclk2:33 1e-06
33 clknet_2_3__leaf_hi_gclk2:33 clknet_2_3__leaf_hi_gclk2:10 1e-06
34 clknet_2_3__leaf_hi_gclk2:11 clknet_2_3__leaf_hi_gclk2:10 0.00561118
35 h1\/ff206:CK clknet_2_3__leaf_hi_gclk2:35 1e-06
36 clknet_2_3__leaf_hi_gclk2:35 clknet_2_3__leaf_hi_gclk2:11 1e-06
37 clknet_2_3__leaf_hi_gclk2:12 clknet_2_3__leaf_hi_gclk2:2 0.0062134
*END

*D_NET clknet_0_hi_gclk5 6.81031
*CONN
*I clkbuf_0_hi_gclk5:Z O *D CLKBUF_X3
*I clkbuf_4_0__f_hi_gclk5:A I *D CLKBUF_X3
*I clkbuf_4_1__f_hi_gclk5:A I *D CLKBUF_X3
*I clkbuf_4_2__f_hi_gclk5:A I *D CLKBUF_X3
*I clkbuf_4_3__f_hi_gclk5:A I *D CLKBUF_X3
*I clkbuf_4_4__f_hi_gclk5:A I *D CLKBUF_X3
*I clkbuf_4_5__f_hi_gclk5:A I *D CLKBUF_X3
*I clkbuf_4_6__f_hi_gclk5:A I *D CLKBUF_X3
*I clkbuf_4_7__f_hi_gclk5:A I *D CLKBUF_X3
*I clkbuf_4_8__f_hi_gclk5:A I *D CLKBUF_X3
*I clkbuf_4_9__f_hi_gclk5:A I *D CLKBUF_X3
*I clkbuf_4_10__f_hi_gclk5:A I *D CLKBUF_X3
*I clkbuf_4_11__f_hi_gclk5:A I *D CLKBUF_X3
*I clkbuf_4_12__f_hi_gclk5:A I *D CLKBUF_X3
*I clkbuf_4_13__f_hi_gclk5:A I *D CLKBUF_X3
*I clkbuf_4_14__f_hi_gclk5:A I *D CLKBUF_X3
*I clkbuf_4_15__f_hi_gclk5:A I *D CLKBUF_X3
*CAP
1 clknet_0_hi_gclk5:0 0.0718488
2 clknet_0_hi_gclk5:1 0.0718671
3 clknet_0_hi_gclk5:2 0.28984
4 clknet_0_hi_gclk5:3 0.466178
5 clknet_0_hi_gclk5:4 0.0617046
6 clknet_0_hi_gclk5:5 0.281958
7 clknet_0_hi_gclk5:6 0.0439157
8 clknet_0_hi_gclk5:7 0.0141764
9 clknet_0_hi_gclk5:8 0.0969722
10 clknet_0_hi_gclk5:9 0.158221
11 clknet_0_hi_gclk5:10 0.43164
12 clknet_0_hi_gclk5:11 0.344757
13 clknet_0_hi_gclk5:12 0.265538
14 clknet_0_hi_gclk5:13 0.42998
15 clknet_0_hi_gclk5:14 0.0116038
16 clknet_0_hi_gclk5:15 0.0299948
17 clknet_0_hi_gclk5:16 0.0299948
18 clknet_0_hi_gclk5:17 0.645508
19 clknet_0_hi_gclk5:18 0.521004
20 clknet_0_hi_gclk5:19 0.500698
21 clknet_0_hi_gclk5:20 0.277963
22 clknet_0_hi_gclk5:21 0.529251
23 clknet_0_hi_gclk5:22 0.525036
24 clknet_0_hi_gclk5:23 0.492469
25 clknet_0_hi_gclk5:24 0.218192
*RES
1 clknet_0_hi_gclk5:0 clknet_0_hi_gclk5:18 0.00295744
2 clkbuf_4_5__f_hi_gclk5:A clknet_0_hi_gclk5:25 1e-06
3 clknet_0_hi_gclk5:25 clknet_0_hi_gclk5:26 1e-06
4 clknet_0_hi_gclk5:26 clknet_0_hi_gclk5:27 1e-06
5 clknet_0_hi_gclk5:27 clknet_0_hi_gclk5:28 1e-06
6 clknet_0_hi_gclk5:28 clknet_0_hi_gclk5:0 1e-06
7 clknet_0_hi_gclk5:1 clknet_0_hi_gclk5:18 0.00295819
8 clkbuf_4_7__f_hi_gclk5:A clknet_0_hi_gclk5:30 1e-06
9 clknet_0_hi_gclk5:30 clknet_0_hi_gclk5:31 1e-06
10 clknet_0_hi_gclk5:31 clknet_0_hi_gclk5:32 1e-06
11 clknet_0_hi_gclk5:32 clknet_0_hi_gclk5:33 1e-06
12 clknet_0_hi_gclk5:33 clknet_0_hi_gclk5:1 1e-06
13 clknet_0_hi_gclk5:2 clknet_0_hi_gclk5:3 0.0093905
14 clkbuf_4_4__f_hi_gclk5:A clknet_0_hi_gclk5:35 1e-06
15 clknet_0_hi_gclk5:35 clknet_0_hi_gclk5:36 1e-06
16 clknet_0_hi_gclk5:36 clknet_0_hi_gclk5:37 1e-06
17 clknet_0_hi_gclk5:37 clknet_0_hi_gclk5:38 1e-06
18 clknet_0_hi_gclk5:38 clknet_0_hi_gclk5:2 1e-06
19 clkbuf_4_0__f_hi_gclk5:A clknet_0_hi_gclk5:40 1e-06
20 clknet_0_hi_gclk5:40 clknet_0_hi_gclk5:41 1e-06
21 clknet_0_hi_gclk5:41 clknet_0_hi_gclk5:42 1e-06
22 clknet_0_hi_gclk5:42 clknet_0_hi_gclk5:43 1e-06
23 clknet_0_hi_gclk5:43 clknet_0_hi_gclk5:3 1e-06
24 clknet_0_hi_gclk5:3 clknet_0_hi_gclk5:5 0.0097983
25 clkbuf_4_3__f_hi_gclk5:A clknet_0_hi_gclk5:45 1e-06
26 clknet_0_hi_gclk5:45 clknet_0_hi_gclk5:46 1e-06
27 clknet_0_hi_gclk5:46 clknet_0_hi_gclk5:47 1e-06
28 clknet_0_hi_gclk5:47 clknet_0_hi_gclk5:48 1e-06
29 clknet_0_hi_gclk5:48 clknet_0_hi_gclk5:5 1e-06
30 clknet_0_hi_gclk5:4 clknet_0_hi_gclk5:19 0.00253988
31 clkbuf_4_6__f_hi_gclk5:A clknet_0_hi_gclk5:50 1e-06
32 clknet_0_hi_gclk5:50 clknet_0_hi_gclk5:51 1e-06
33 clknet_0_hi_gclk5:51 clknet_0_hi_gclk5:52 1e-06
34 clknet_0_hi_gclk5:52 clknet_0_hi_gclk5:53 1e-06
35 clknet_0_hi_gclk5:53 clknet_0_hi_gclk5:4 1e-06
36 clknet_0_hi_gclk5:5 clknet_0_hi_gclk5:20 0.00180766
37 clknet_0_hi_gclk5:6 clknet_0_hi_gclk5:20 0.00180766
38 clkbuf_4_2__f_hi_gclk5:A clknet_0_hi_gclk5:55 1e-06
39 clknet_0_hi_gclk5:55 clknet_0_hi_gclk5:56 1e-06
40 clknet_0_hi_gclk5:56 clknet_0_hi_gclk5:57 1e-06
41 clknet_0_hi_gclk5:57 clknet_0_hi_gclk5:58 1e-06
42 clknet_0_hi_gclk5:58 clknet_0_hi_gclk5:6 1e-06
43 clknet_0_hi_gclk5:7 clknet_0_hi_gclk5:22 0.000583527
44 clkbuf_4_1__f_hi_gclk5:A clknet_0_hi_gclk5:60 1e-06
45 clknet_0_hi_gclk5:60 clknet_0_hi_gclk5:61 1e-06
46 clknet_0_hi_gclk5:61 clknet_0_hi_gclk5:62 1e-06
47 clknet_0_hi_gclk5:62 clknet_0_hi_gclk5:63 1e-06
48 clknet_0_hi_gclk5:63 clknet_0_hi_gclk5:7 1e-06
49 clknet_0_hi_gclk5:8 clknet_0_hi_gclk5:24 0.000184746
50 clkbuf_4_11__f_hi_gclk5:A clknet_0_hi_gclk5:65 1e-06
51 clknet_0_hi_gclk5:65 clknet_0_hi_gclk5:66 1e-06
52 clknet_0_hi_gclk5:66 clknet_0_hi_gclk5:67 1e-06
53 clknet_0_hi_gclk5:67 clknet_0_hi_gclk5:68 1e-06
54 clknet_0_hi_gclk5:68 clknet_0_hi_gclk5:8 1e-06
55 clknet_0_hi_gclk5:9 clknet_0_hi_gclk5:9 1e-06
56 clkbuf_0_hi_gclk5:Z clknet_0_hi_gclk5:70 1e-06
57 clknet_0_hi_gclk5:70 clknet_0_hi_gclk5:71 1e-06
58 clknet_0_hi_gclk5:71 clknet_0_hi_gclk5:72 1e-06
59 clknet_0_hi_gclk5:72 clknet_0_hi_gclk5:73 1e-06
60 clknet_0_hi_gclk5:73 clknet_0_hi_gclk5:9 1e-06
61 clknet_0_hi_gclk5:10 clknet_0_hi_gclk5:17 0.0177672
62 clkbuf_4_8__f_hi_gclk5:A clknet_0_hi_gclk5:75 1e-06
63 clknet_0_hi_gclk5:75 clknet_0_hi_gclk5:76 1e-06
64 clknet_0_hi_gclk5:76 clknet_0_hi_gclk5:77 1e-06
65 clknet_0_hi_gclk5:77 clknet_0_hi_gclk5:78 1e-06
66 clknet_0_hi_gclk5:78 clknet_0_hi_gclk5:10 1e-06
67 clknet_0_hi_gclk5:11 clknet_0_hi_gclk5:17 0.00326084
68 clkbuf_4_9__f_hi_gclk5:A clknet_0_hi_gclk5:80 1e-06
69 clknet_0_hi_gclk5:80 clknet_0_hi_gclk5:81 1e-06
70 clknet_0_hi_gclk5:81 clknet_0_hi_gclk5:82 1e-06
71 clknet_0_hi_gclk5:82 clknet_0_hi_gclk5:83 1e-06
72 clknet_0_hi_gclk5:83 clknet_0_hi_gclk5:11 1e-06
73 clknet_0_hi_gclk5:12 clknet_0_hi_gclk5:11 0.0109301
74 clkbuf_4_10__f_hi_gclk5:A clknet_0_hi_gclk5:85 1e-06
75 clknet_0_hi_gclk5:85 clknet_0_hi_gclk5:86 1e-06
76 clknet_0_hi_gclk5:86 clknet_0_hi_gclk5:87 1e-06
77 clknet_0_hi_gclk5:87 clknet_0_hi_gclk5:88 1e-06
78 clknet_0_hi_gclk5:88 clknet_0_hi_gclk5:12 1e-06
79 clknet_0_hi_gclk5:13 clknet_0_hi_gclk5:22 0.0172212
80 clkbuf_4_12__f_hi_gclk5:A clknet_0_hi_gclk5:90 1e-06
81 clknet_0_hi_gclk5:90 clknet_0_hi_gclk5:91 1e-06
82 clknet_0_hi_gclk5:91 clknet_0_hi_gclk5:92 1e-06
83 clknet_0_hi_gclk5:92 clknet_0_hi_gclk5:93 1e-06
84 clknet_0_hi_gclk5:93 clknet_0_hi_gclk5:13 1e-06
85 clknet_0_hi_gclk5:14 clknet_0_hi_gclk5:23 0.000477636
86 clkbuf_4_14__f_hi_gclk5:A clknet_0_hi_gclk5:95 1e-06
87 clknet_0_hi_gclk5:95 clknet_0_hi_gclk5:96 1e-06
88 clknet_0_hi_gclk5:96 clknet_0_hi_gclk5:97 1e-06
89 clknet_0_hi_gclk5:97 clknet_0_hi_gclk5:98 1e-06
90 clknet_0_hi_gclk5:98 clknet_0_hi_gclk5:14 1e-06
91 clknet_0_hi_gclk5:15 clknet_0_hi_gclk5:21 0.00123464
92 clkbuf_4_13__f_hi_gclk5:A clknet_0_hi_gclk5:100 1e-06
93 clknet_0_hi_gclk5:100 clknet_0_hi_gclk5:101 1e-06
94 clknet_0_hi_gclk5:101 clknet_0_hi_gclk5:102 1e-06
95 clknet_0_hi_gclk5:102 clknet_0_hi_gclk5:103 1e-06
96 clknet_0_hi_gclk5:103 clknet_0_hi_gclk5:15 1e-06
97 clknet_0_hi_gclk5:16 clknet_0_hi_gclk5:21 0.00123464
98 clkbuf_4_15__f_hi_gclk5:A clknet_0_hi_gclk5:105 1e-06
99 clknet_0_hi_gclk5:105 clknet_0_hi_gclk5:106 1e-06
100 clknet_0_hi_gclk5:106 clknet_0_hi_gclk5:107 1e-06
101 clknet_0_hi_gclk5:107 clknet_0_hi_gclk5:108 1e-06
102 clknet_0_hi_gclk5:108 clknet_0_hi_gclk5:16 1e-06
103 clknet_0_hi_gclk5:17 clknet_0_hi_gclk5:9 0.00554238
104 clknet_0_hi_gclk5:18 clknet_0_hi_gclk5:19 0.0155299
105 clknet_0_hi_gclk5:19 clknet_0_hi_gclk5:2 0.00253988
106 clknet_0_hi_gclk5:20 clknet_0_hi_gclk5:24 0.00782617
107 clknet_0_hi_gclk5:21 clknet_0_hi_gclk5:23 0.0193157
108 clknet_0_hi_gclk5:22 clknet_0_hi_gclk5:8 0.00380682
109 clknet_0_hi_gclk5:23 clknet_0_hi_gclk5:13 0.000477636
110 clknet_0_hi_gclk5:24 clknet_0_hi_gclk5:9 0.000970292
*END

*D_NET clknet_4_0__leaf_hi_gclk5 0.855396
*CONN
*I h1\/ff17:CK I *D DFF_X1
*I h1\/ff2:CK I *D DFF_X1
*I h1\/ff28:CK I *D DFF_X1
*I h1\/ff30:CK I *D DFF_X1
*I h1\/ff47:CK I *D DFF_X1
*I h1\/ff60:CK I *D DFF_X1
*I h1\/ff76:CK I *D DFF_X1
*I clkbuf_4_0__f_hi_gclk5:Z O *D CLKBUF_X3
*I clkload3:A I *D INV_X4
*CAP
1 clknet_4_0__leaf_hi_gclk5:0 0.0200114
2 clknet_4_0__leaf_hi_gclk5:1 0.0210824
3 clknet_4_0__leaf_hi_gclk5:2 0.0590006
4 clknet_4_0__leaf_hi_gclk5:3 0.189948
5 clknet_4_0__leaf_hi_gclk5:4 0.124221
6 clknet_4_0__leaf_hi_gclk5:5 0.133785
7 clknet_4_0__leaf_hi_gclk5:6 0.0462234
8 clknet_4_0__leaf_hi_gclk5:7 0.167607
9 clknet_4_0__leaf_hi_gclk5:8 0.0462234
10 clknet_4_0__leaf_hi_gclk5:9 0.0472944
*RES
1 clknet_4_0__leaf_hi_gclk5:0 clknet_4_0__leaf_hi_gclk5:1 0.00190316
2 clkload3:A clknet_4_0__leaf_hi_gclk5:10 1e-06
3 clknet_4_0__leaf_hi_gclk5:10 clknet_4_0__leaf_hi_gclk5:0 1e-06
4 clkbuf_4_0__f_hi_gclk5:Z clknet_4_0__leaf_hi_gclk5:12 1e-06
5 clknet_4_0__leaf_hi_gclk5:12 clknet_4_0__leaf_hi_gclk5:1 1e-06
6 clknet_4_0__leaf_hi_gclk5:1 clknet_4_0__leaf_hi_gclk5:1 1e-06
7 clknet_4_0__leaf_hi_gclk5:2 clknet_4_0__leaf_hi_gclk5:3 0.00561118