*SPEF "ieee 1481-1999"
*DESIGN "MockArray"
*DATE "11:11:11 Fri 11 11, 1111"
*VENDOR "The OpenROAD Project"
*PROGRAM "OpenROAD"
*VERSION "1.0"
*DESIGN_FLOW "NAME_SCOPE LOCAL" "PIN_CAP NONE"
*DIVIDER /
*DELIMITER :
*BUS_DELIMITER []
*T_UNIT 1 PS
*C_UNIT 1 FF
*R_UNIT 1 KOHM
*L_UNIT 1 HENRY

*PORTS
clock I
io_ins_down_0[0] I
io_ins_down_0[10] I
io_ins_down_0[11] I
io_ins_down_0[12] I
io_ins_down_0[13] I
io_ins_down_0[14] I
io_ins_down_0[15] I
io_ins_down_0[16] I
io_ins_down_0[17] I
io_ins_down_0[18] I
io_ins_down_0[19] I
io_ins_down_0[1] I
io_ins_down_0[20] I
io_ins_down_0[21] I
io_ins_down_0[22] I
io_ins_down_0[23] I
io_ins_down_0[24] I
io_ins_down_0[25] I
io_ins_down_0[26] I
io_ins_down_0[27] I
io_ins_down_0[28] I
io_ins_down_0[29] I
io_ins_down_0[2] I
io_ins_down_0[30] I
io_ins_down_0[31] I
io_ins_down_0[32] I
io_ins_down_0[33] I
io_ins_down_0[34] I
io_ins_down_0[35] I
io_ins_down_0[36] I
io_ins_down_0[37] I
io_ins_down_0[38] I
io_ins_down_0[39] I
io_ins_down_0[3] I
io_ins_down_0[40] I
io_ins_down_0[41] I
io_ins_down_0[42] I
io_ins_down_0[43] I
io_ins_down_0[44] I
io_ins_down_0[45] I
io_ins_down_0[46] I
io_ins_down_0[47] I
io_ins_down_0[48] I
io_ins_down_0[49] I
io_ins_down_0[4] I
io_ins_down_0[50] I
io_ins_down_0[51] I
io_ins_down_0[52] I
io_ins_down_0[53] I
io_ins_down_0[54] I
io_ins_down_0[55] I
io_ins_down_0[56] I
io_ins_down_0[57] I
io_ins_down_0[58] I
io_ins_down_0[59] I
io_ins_down_0[5] I
io_ins_down_0[60] I
io_ins_down_0[61] I
io_ins_down_0[62] I
io_ins_down_0[63] I
io_ins_down_0[6] I
io_ins_down_0[7] I
io_ins_down_0[8] I
io_ins_down_0[9] I
io_ins_down_1[0] I
io_ins_down_1[10] I
io_ins_down_1[11] I
io_ins_down_1[12] I
io_ins_down_1[13] I
io_ins_down_1[14] I
io_ins_down_1[15] I
io_ins_down_1[16] I
io_ins_down_1[17] I
io_ins_down_1[18] I
io_ins_down_1[19] I
io_ins_down_1[1] I
io_ins_down_1[20] I
io_ins_down_1[21] I
io_ins_down_1[22] I
io_ins_down_1[23] I
io_ins_down_1[24] I
io_ins_down_1[25] I
io_ins_down_1[26] I
io_ins_down_1[27] I
io_ins_down_1[28] I
io_ins_down_1[29] I
io_ins_down_1[2] I
io_ins_down_1[30] I
io_ins_down_1[31] I
io_ins_down_1[32] I
io_ins_down_1[33] I
io_ins_down_1[34] I
io_ins_down_1[35] I
io_ins_down_1[36] I
io_ins_down_1[37] I
io_ins_down_1[38] I
io_ins_down_1[39] I
io_ins_down_1[3] I
io_ins_down_1[40] I
io_ins_down_1[41] I
io_ins_down_1[42] I
io_ins_down_1[43] I
io_ins_down_1[44] I
io_ins_down_1[45] I
io_ins_down_1[46] I
io_ins_down_1[47] I
io_ins_down_1[48] I
io_ins_down_1[49] I
io_ins_down_1[4] I
io_ins_down_1[50] I
io_ins_down_1[51] I
io_ins_down_1[52] I
io_ins_down_1[53] I
io_ins_down_1[54] I
io_ins_down_1[55] I
io_ins_down_1[56] I
io_ins_down_1[57] I
io_ins_down_1[58] I
io_ins_down_1[59] I
io_ins_down_1[5] I
io_ins_down_1[60] I
io_ins_down_1[61] I
io_ins_down_1[62] I
io_ins_down_1[63] I
io_ins_down_1[6] I
io_ins_down_1[7] I
io_ins_down_1[8] I
io_ins_down_1[9] I
io_ins_down_2[0] I
io_ins_down_2[10] I
io_ins_down_2[11] I
io_ins_down_2[12] I
io_ins_down_2[13] I
io_ins_down_2[14] I
io_ins_down_2[15] I
io_ins_down_2[16] I
io_ins_down_2[17] I
io_ins_down_2[18] I
io_ins_down_2[19] I
io_ins_down_2[1] I
io_ins_down_2[20] I
io_ins_down_2[21] I
io_ins_down_2[22] I
io_ins_down_2[23] I
io_ins_down_2[24] I
io_ins_down_2[25] I
io_ins_down_2[26] I
io_ins_down_2[27] I
io_ins_down_2[28] I
io_ins_down_2[29] I
io_ins_down_2[2] I
io_ins_down_2[30] I
io_ins_down_2[31] I
io_ins_down_2[32] I
io_ins_down_2[33] I
io_ins_down_2[34] I
io_ins_down_2[35] I
io_ins_down_2[36] I
io_ins_down_2[37] I
io_ins_down_2[38] I
io_ins_down_2[39] I
io_ins_down_2[3] I
io_ins_down_2[40] I
io_ins_down_2[41] I
io_ins_down_2[42] I
io_ins_down_2[43] I
io_ins_down_2[44] I
io_ins_down_2[45] I
io_ins_down_2[46] I
io_ins_down_2[47] I
io_ins_down_2[48] I
io_ins_down_2[49] I
io_ins_down_2[4] I
io_ins_down_2[50] I
io_ins_down_2[51] I
io_ins_down_2[52] I
io_ins_down_2[53] I
io_ins_down_2[54] I
io_ins_down_2[55] I
io_ins_down_2[56] I
io_ins_down_2[57] I
io_ins_down_2[58] I
io_ins_down_2[59] I
io_ins_down_2[5] I
io_ins_down_2[60] I
io_ins_down_2[61] I
io_ins_down_2[62] I
io_ins_down_2[63] I
io_ins_down_2[6] I
io_ins_down_2[7] I
io_ins_down_2[8] I
io_ins_down_2[9] I
io_ins_down_3[0] I
io_ins_down_3[10] I
io_ins_down_3[11] I
io_ins_down_3[12] I
io_ins_down_3[13] I
io_ins_down_3[14] I
io_ins_down_3[15] I
io_ins_down_3[16] I
io_ins_down_3[17] I
io_ins_down_3[18] I
io_ins_down_3[19] I
io_ins_down_3[1] I
io_ins_down_3[20] I
io_ins_down_3[21] I
io_ins_down_3[22] I
io_ins_down_3[23] I
io_ins_down_3[24] I
io_ins_down_3[25] I
io_ins_down_3[26] I
io_ins_down_3[27] I
io_ins_down_3[28] I
io_ins_down_3[29] I
io_ins_down_3[2] I
io_ins_down_3[30] I
io_ins_down_3[31] I
io_ins_down_3[32] I
io_ins_down_3[33] I
io_ins_down_3[34] I
io_ins_down_3[35] I
io_ins_down_3[36] I
io_ins_down_3[37] I
io_ins_down_3[38] I
io_ins_down_3[39] I
io_ins_down_3[3] I
io_ins_down_3[40] I
io_ins_down_3[41] I
io_ins_down_3[42] I
io_ins_down_3[43] I
io_ins_down_3[44] I
io_ins_down_3[45] I
io_ins_down_3[46] I
io_ins_down_3[47] I
io_ins_down_3[48] I
io_ins_down_3[49] I
io_ins_down_3[4] I
io_ins_down_3[50] I
io_ins_down_3[51] I
io_ins_down_3[52] I
io_ins_down_3[53] I
io_ins_down_3[54] I
io_ins_down_3[55] I
io_ins_down_3[56] I
io_ins_down_3[57] I
io_ins_down_3[58] I
io_ins_down_3[59] I
io_ins_down_3[5] I
io_ins_down_3[60] I
io_ins_down_3[61] I
io_ins_down_3[62] I
io_ins_down_3[63] I
io_ins_down_3[6] I
io_ins_down_3[7] I
io_ins_down_3[8] I
io_ins_down_3[9] I
io_ins_left_0[0] I
io_ins_left_0[10] I
io_ins_left_0[11] I
io_ins_left_0[12] I
io_ins_left_0[13] I
io_ins_left_0[14] I
io_ins_left_0[15] I
io_ins_left_0[16] I
io_ins_left_0[17] I
io_ins_left_0[18] I
io_ins_left_0[19] I
io_ins_left_0[1] I
io_ins_left_0[20] I
io_ins_left_0[21] I
io_ins_left_0[22] I
io_ins_left_0[23] I
io_ins_left_0[24] I
io_ins_left_0[25] I
io_ins_left_0[26] I
io_ins_left_0[27] I
io_ins_left_0[28] I
io_ins_left_0[29] I
io_ins_left_0[2] I
io_ins_left_0[30] I
io_ins_left_0[31] I
io_ins_left_0[32] I
io_ins_left_0[33] I
io_ins_left_0[34] I
io_ins_left_0[35] I
io_ins_left_0[36] I
io_ins_left_0[37] I
io_ins_left_0[38] I
io_ins_left_0[39] I
io_ins_left_0[3] I
io_ins_left_0[40] I
io_ins_left_0[41] I
io_ins_left_0[42] I
io_ins_left_0[43] I
io_ins_left_0[44] I
io_ins_left_0[45] I
io_ins_left_0[46] I
io_ins_left_0[47] I
io_ins_left_0[48] I
io_ins_left_0[49] I
io_ins_left_0[4] I
io_ins_left_0[50] I
io_ins_left_0[51] I
io_ins_left_0[52] I
io_ins_left_0[53] I
io_ins_left_0[54] I
io_ins_left_0[55] I
io_ins_left_0[56] I
io_ins_left_0[57] I
io_ins_left_0[58] I
io_ins_left_0[59] I
io_ins_left_0[5] I
io_ins_left_0[60] I
io_ins_left_0[61] I
io_ins_left_0[62] I
io_ins_left_0[63] I
io_ins_left_0[6] I
io_ins_left_0[7] I
io_ins_left_0[8] I
io_ins_left_0[9] I
io_ins_left_1[0] I
io_ins_left_1[10] I
io_ins_left_1[11] I
io_ins_left_1[12] I
io_ins_left_1[13] I
io_ins_left_1[14] I
io_ins_left_1[15] I
io_ins_left_1[16] I
io_ins_left_1[17] I
io_ins_left_1[18] I
io_ins_left_1[19] I
io_ins_left_1[1] I
io_ins_left_1[20] I
io_ins_left_1[21] I
io_ins_left_1[22] I
io_ins_left_1[23] I
io_ins_left_1[24] I
io_ins_left_1[25] I
io_ins_left_1[26] I
io_ins_left_1[27] I
io_ins_left_1[28] I
io_ins_left_1[29] I
io_ins_left_1[2] I
io_ins_left_1[30] I
io_ins_left_1[31] I
io_ins_left_1[32] I
io_ins_left_1[33] I
io_ins_left_1[34] I
io_ins_left_1[35] I
io_ins_left_1[36] I
io_ins_left_1[37] I
io_ins_left_1[38] I
io_ins_left_1[39] I
io_ins_left_1[3] I
io_ins_left_1[40] I
io_ins_left_1[41] I
io_ins_left_1[42] I
io_ins_left_1[43] I
io_ins_left_1[44] I
io_ins_left_1[45] I
io_ins_left_1[46] I
io_ins_left_1[47] I
io_ins_left_1[48] I
io_ins_left_1[49] I
io_ins_left_1[4] I
io_ins_left_1[50] I
io_ins_left_1[51] I
io_ins_left_1[52] I
io_ins_left_1[53] I
io_ins_left_1[54] I
io_ins_left_1[55] I
io_ins_left_1[56] I
io_ins_left_1[57] I
io_ins_left_1[58] I
io_ins_left_1[59] I
io_ins_left_1[5] I
io_ins_left_1[60] I
io_ins_left_1[61] I
io_ins_left_1[62] I
io_ins_left_1[63] I
io_ins_left_1[6] I
io_ins_left_1[7] I
io_ins_left_1[8] I
io_ins_left_1[9] I
io_ins_left_2[0] I
io_ins_left_2[10] I
io_ins_left_2[11] I
io_ins_left_2[12] I
io_ins_left_2[13] I
io_ins_left_2[14] I
io_ins_left_2[15] I
io_ins_left_2[16] I
io_ins_left_2[17] I
io_ins_left_2[18] I
io_ins_left_2[19] I
io_ins_left_2[1] I
io_ins_left_2[20] I
io_ins_left_2[21] I
io_ins_left_2[22] I
io_ins_left_2[23] I
io_ins_left_2[24] I
io_ins_left_2[25] I
io_ins_left_2[26] I
io_ins_left_2[27] I
io_ins_left_2[28] I
io_ins_left_2[29] I
io_ins_left_2[2] I
io_ins_left_2[30] I
io_ins_left_2[31] I
io_ins_left_2[32] I
io_ins_left_2[33] I
io_ins_left_2[34] I
io_ins_left_2[35] I
io_ins_left_2[36] I
io_ins_left_2[37] I
io_ins_left_2[38] I
io_ins_left_2[39] I
io_ins_left_2[3] I
io_ins_left_2[40] I
io_ins_left_2[41] I
io_ins_left_2[42] I
io_ins_left_2[43] I
io_ins_left_2[44] I
io_ins_left_2[45] I
io_ins_left_2[46] I
io_ins_left_2[47] I
io_ins_left_2[48] I
io_ins_left_2[49] I
io_ins_left_2[4] I
io_ins_left_2[50] I
io_ins_left_2[51] I
io_ins_left_2[52] I
io_ins_left_2[53] I
io_ins_left_2[54] I
io_ins_left_2[55] I
io_ins_left_2[56] I
io_ins_left_2[57] I
io_ins_left_2[58] I
io_ins_left_2[59] I
io_ins_left_2[5] I
io_ins_left_2[60] I
io_ins_left_2[61] I
io_ins_left_2[62] I
io_ins_left_2[63] I
io_ins_left_2[6] I
io_ins_left_2[7] I
io_ins_left_2[8] I
io_ins_left_2[9] I
io_ins_left_3[0] I
io_ins_left_3[10] I
io_ins_left_3[11] I
io_ins_left_3[12] I
io_ins_left_3[13] I
io_ins_left_3[14] I
io_ins_left_3[15] I
io_ins_left_3[16] I
io_ins_left_3[17] I
io_ins_left_3[18] I
io_ins_left_3[19] I
io_ins_left_3[1] I
io_ins_left_3[20] I
io_ins_left_3[21] I
io_ins_left_3[22] I
io_ins_left_3[23] I
io_ins_left_3[24] I
io_ins_left_3[25] I
io_ins_left_3[26] I
io_ins_left_3[27] I
io_ins_left_3[28] I
io_ins_left_3[29] I
io_ins_left_3[2] I
io_ins_left_3[30] I
io_ins_left_3[31] I
io_ins_left_3[32] I
io_ins_left_3[33] I
io_ins_left_3[34] I
io_ins_left_3[35] I
io_ins_left_3[36] I
io_ins_left_3[37] I
io_ins_left_3[38] I
io_ins_left_3[39] I
io_ins_left_3[3] I
io_ins_left_3[40] I
io_ins_left_3[41] I
io_ins_left_3[42] I
io_ins_left_3[43] I
io_ins_left_3[44] I
io_ins_left_3[45] I
io_ins_left_3[46] I
io_ins_left_3[47] I
io_ins_left_3[48] I
io_ins_left_3[49] I
io_ins_left_3[4] I
io_ins_left_3[50] I
io_ins_left_3[51] I
io_ins_left_3[52] I
io_ins_left_3[53] I
io_ins_left_3[54] I
io_ins_left_3[55] I
io_ins_left_3[56] I
io_ins_left_3[57] I
io_ins_left_3[58] I
io_ins_left_3[59] I
io_ins_left_3[5] I
io_ins_left_3[60] I
io_ins_left_3[61] I
io_ins_left_3[62] I
io_ins_left_3[63] I
io_ins_left_3[6] I
io_ins_left_3[7] I
io_ins_left_3[8] I
io_ins_left_3[9] I
io_ins_right_0[0] I
io_ins_right_0[10] I
io_ins_right_0[11] I
io_ins_right_0[12] I
io_ins_right_0[13] I
io_ins_right_0[14] I
io_ins_right_0[15] I
io_ins_right_0[16] I
io_ins_right_0[17] I
io_ins_right_0[18] I
io_ins_right_0[19] I
io_ins_right_0[1] I
io_ins_right_0[20] I
io_ins_right_0[21] I
io_ins_right_0[22] I
io_ins_right_0[23] I
io_ins_right_0[24] I
io_ins_right_0[25] I
io_ins_right_0[26] I
io_ins_right_0[27] I
io_ins_right_0[28] I
io_ins_right_0[29] I
io_ins_right_0[2] I
io_ins_right_0[30] I
io_ins_right_0[31] I
io_ins_right_0[32] I
io_ins_right_0[33] I
io_ins_right_0[34] I
io_ins_right_0[35] I
io_ins_right_0[36] I
io_ins_right_0[37] I
io_ins_right_0[38] I
io_ins_right_0[39] I
io_ins_right_0[3] I
io_ins_right_0[40] I
io_ins_right_0[41] I
io_ins_right_0[42] I
io_ins_right_0[43] I
io_ins_right_0[44] I
io_ins_right_0[45] I
io_ins_right_0[46] I
io_ins_right_0[47] I
io_ins_right_0[48] I
io_ins_right_0[49] I
io_ins_right_0[4] I
io_ins_right_0[50] I
io_ins_right_0[51] I
io_ins_right_0[52] I
io_ins_right_0[53] I
io_ins_right_0[54] I
io_ins_right_0[55] I
io_ins_right_0[56] I
io_ins_right_0[57] I
io_ins_right_0[58] I
io_ins_right_0[59] I
io_ins_right_0[5] I
io_ins_right_0[60] I
io_ins_right_0[61] I
io_ins_right_0[62] I
io_ins_right_0[63] I
io_ins_right_0[6] I
io_ins_right_0[7] I
io_ins_right_0[8] I
io_ins_right_0[9] I
io_ins_right_1[0] I
io_ins_right_1[10] I
io_ins_right_1[11] I
io_ins_right_1[12] I
io_ins_right_1[13] I
io_ins_right_1[14] I
io_ins_right_1[15] I
io_ins_right_1[16] I
io_ins_right_1[17] I
io_ins_right_1[18] I
io_ins_right_1[19] I
io_ins_right_1[1] I
io_ins_right_1[20] I
io_ins_right_1[21] I
io_ins_right_1[22] I
io_ins_right_1[23] I
io_ins_right_1[24] I
io_ins_right_1[25] I
io_ins_right_1[26] I
io_ins_right_1[27] I
io_ins_right_1[28] I
io_ins_right_1[29] I
io_ins_right_1[2] I
io_ins_right_1[30] I
io_ins_right_1[31] I
io_ins_right_1[32] I
io_ins_right_1[33] I
io_ins_right_1[34] I
io_ins_right_1[35] I
io_ins_right_1[36] I
io_ins_right_1[37] I
io_ins_right_1[38] I
io_ins_right_1[39] I
io_ins_right_1[3] I
io_ins_right_1[40] I
io_ins_right_1[41] I
io_ins_right_1[42] I
io_ins_right_1[43] I
io_ins_right_1[44] I
io_ins_right_1[45] I
io_ins_right_1[46] I
io_ins_right_1[47] I
io_ins_right_1[48] I
io_ins_right_1[49] I
io_ins_right_1[4] I
io_ins_right_1[50] I
io_ins_right_1[51] I
io_ins_right_1[52] I
io_ins_right_1[53] I
io_ins_right_1[54] I
io_ins_right_1[55] I
io_ins_right_1[56] I
io_ins_right_1[57] I
io_ins_right_1[58] I
io_ins_right_1[59] I
io_ins_right_1[5] I
io_ins_right_1[60] I
io_ins_right_1[61] I
io_ins_right_1[62] I
io_ins_right_1[63] I
io_ins_right_1[6] I
io_ins_right_1[7] I
io_ins_right_1[8] I
io_ins_right_1[9] I
io_ins_right_2[0] I
io_ins_right_2[10] I
io_ins_right_2[11] I
io_ins_right_2[12] I
io_ins_right_2[13] I
io_ins_right_2[14] I
io_ins_right_2[15] I
io_ins_right_2[16] I
io_ins_right_2[17] I
io_ins_right_2[18] I
io_ins_right_2[19] I
io_ins_right_2[1] I
io_ins_right_2[20] I
io_ins_right_2[21] I
io_ins_right_2[22] I
io_ins_right_2[23] I
io_ins_right_2[24] I
io_ins_right_2[25] I
io_ins_right_2[26] I
io_ins_right_2[27] I
io_ins_right_2[28] I
io_ins_right_2[29] I
io_ins_right_2[2] I
io_ins_right_2[30] I
io_ins_right_2[31] I
io_ins_right_2[32] I
io_ins_right_2[33] I
io_ins_right_2[34] I
io_ins_right_2[35] I
io_ins_right_2[36] I
io_ins_right_2[37] I
io_ins_right_2[38] I
io_ins_right_2[39] I
io_ins_right_2[3] I
io_ins_right_2[40] I
io_ins_right_2[41] I
io_ins_right_2[42] I
io_ins_right_2[43] I
io_ins_right_2[44] I
io_ins_right_2[45] I
io_ins_right_2[46] I
io_ins_right_2[47] I
io_ins_right_2[48] I
io_ins_right_2[49] I
io_ins_right_2[4] I
io_ins_right_2[50] I
io_ins_right_2[51] I
io_ins_right_2[52] I
io_ins_right_2[53] I
io_ins_right_2[54] I
io_ins_right_2[55] I
io_ins_right_2[56] I
io_ins_right_2[57] I
io_ins_right_2[58] I
io_ins_right_2[59] I
io_ins_right_2[5] I
io_ins_right_2[60] I
io_ins_right_2[61] I
io_ins_right_2[62] I
io_ins_right_2[63] I
io_ins_right_2[6] I
io_ins_right_2[7] I
io_ins_right_2[8] I
io_ins_right_2[9] I
io_ins_right_3[0] I
io_ins_right_3[10] I
io_ins_right_3[11] I
io_ins_right_3[12] I
io_ins_right_3[13] I
io_ins_right_3[14] I
io_ins_right_3[15] I
io_ins_right_3[16] I
io_ins_right_3[17] I
io_ins_right_3[18] I
io_ins_right_3[19] I
io_ins_right_3[1] I
io_ins_right_3[20] I
io_ins_right_3[21] I
io_ins_right_3[22] I
io_ins_right_3[23] I
io_ins_right_3[24] I
io_ins_right_3[25] I
io_ins_right_3[26] I
io_ins_right_3[27] I
io_ins_right_3[28] I
io_ins_right_3[29] I
io_ins_right_3[2] I
io_ins_right_3[30] I
io_ins_right_3[31] I
io_ins_right_3[32] I
io_ins_right_3[33] I
io_ins_right_3[34] I
io_ins_right_3[35] I
io_ins_right_3[36] I
io_ins_right_3[37] I
io_ins_right_3[38] I
io_ins_right_3[39] I
io_ins_right_3[3] I
io_ins_right_3[40] I
io_ins_right_3[41] I
io_ins_right_3[42] I
io_ins_right_3[43] I
io_ins_right_3[44] I
io_ins_right_3[45] I
io_ins_right_3[46] I
io_ins_right_3[47] I
io_ins_right_3[48] I
io_ins_right_3[49] I
io_ins_right_3[4] I
io_ins_right_3[50] I
io_ins_right_3[51] I
io_ins_right_3[52] I
io_ins_right_3[53] I
io_ins_right_3[54] I
io_ins_right_3[55] I
io_ins_right_3[56] I
io_ins_right_3[57] I
io_ins_right_3[58] I
io_ins_right_3[59] I
io_ins_right_3[5] I
io_ins_right_3[60] I
io_ins_right_3[61] I
io_ins_right_3[62] I
io_ins_right_3[63] I
io_ins_right_3[6] I
io_ins_right_3[7] I
io_ins_right_3[8] I
io_ins_right_3[9] I
io_ins_up_0[0] I
io_ins_up_0[10] I
io_ins_up_0[11] I
io_ins_up_0[12] I
io_ins_up_0[13] I
io_ins_up_0[14] I
io_ins_up_0[15] I
io_ins_up_0[16] I
io_ins_up_0[17] I
io_ins_up_0[18] I
io_ins_up_0[19] I
io_ins_up_0[1] I
io_ins_up_0[20] I
io_ins_up_0[21] I
io_ins_up_0[22] I
io_ins_up_0[23] I
io_ins_up_0[24] I
io_ins_up_0[25] I
io_ins_up_0[26] I
io_ins_up_0[27] I
io_ins_up_0[28] I
io_ins_up_0[29] I
io_ins_up_0[2] I
io_ins_up_0[30] I
io_ins_up_0[31] I
io_ins_up_0[32] I
io_ins_up_0[33] I
io_ins_up_0[34] I
io_ins_up_0[35] I
io_ins_up_0[36] I
io_ins_up_0[37] I
io_ins_up_0[38] I
io_ins_up_0[39] I
io_ins_up_0[3] I
io_ins_up_0[40] I
io_ins_up_0[41] I
io_ins_up_0[42] I
io_ins_up_0[43] I
io_ins_up_0[44] I
io_ins_up_0[45] I
io_ins_up_0[46] I
io_ins_up_0[47] I
io_ins_up_0[48] I
io_ins_up_0[49] I
io_ins_up_0[4] I
io_ins_up_0[50] I
io_ins_up_0[51] I
io_ins_up_0[52] I
io_ins_up_0[53] I
io_ins_up_0[54] I
io_ins_up_0[55] I
io_ins_up_0[56] I
io_ins_up_0[57] I
io_ins_up_0[58] I
io_ins_up_0[59] I
io_ins_up_0[5] I
io_ins_up_0[60] I
io_ins_up_0[61] I
io_ins_up_0[62] I
io_ins_up_0[63] I
io_ins_up_0[6] I
io_ins_up_0[7] I
io_ins_up_0[8] I
io_ins_up_0[9] I
io_ins_up_1[0] I
io_ins_up_1[10] I
io_ins_up_1[11] I
io_ins_up_1[12] I
io_ins_up_1[13] I
io_ins_up_1[14] I
io_ins_up_1[15] I
io_ins_up_1[16] I
io_ins_up_1[17] I
io_ins_up_1[18] I
io_ins_up_1[19] I
io_ins_up_1[1] I
io_ins_up_1[20] I
io_ins_up_1[21] I
io_ins_up_1[22] I
io_ins_up_1[23] I
io_ins_up_1[24] I
io_ins_up_1[25] I
io_ins_up_1[26] I
io_ins_up_1[27] I
io_ins_up_1[28] I
io_ins_up_1[29] I
io_ins_up_1[2] I
io_ins_up_1[30] I
io_ins_up_1[31] I
io_ins_up_1[32] I
io_ins_up_1[33] I
io_ins_up_1[34] I
io_ins_up_1[35] I
io_ins_up_1[36] I
io_ins_up_1[37] I
io_ins_up_1[38] I
io_ins_up_1[39] I
io_ins_up_1[3] I
io_ins_up_1[40] I
io_ins_up_1[41] I
io_ins_up_1[42] I
io_ins_up_1[43] I
io_ins_up_1[44] I
io_ins_up_1[45] I
io_ins_up_1[46] I
io_ins_up_1[47] I
io_ins_up_1[48] I
io_ins_up_1[49] I
io_ins_up_1[4] I
io_ins_up_1[50] I
io_ins_up_1[51] I
io_ins_up_1[52] I
io_ins_up_1[53] I
io_ins_up_1[54] I
io_ins_up_1[55] I
io_ins_up_1[56] I
io_ins_up_1[57] I
io_ins_up_1[58] I
io_ins_up_1[59] I
io_ins_up_1[5] I
io_ins_up_1[60] I
io_ins_up_1[61] I
io_ins_up_1[62] I
io_ins_up_1[63] I
io_ins_up_1[6] I
io_ins_up_1[7] I
io_ins_up_1[8] I
io_ins_up_1[9] I
io_ins_up_2[0] I
io_ins_up_2[10] I
io_ins_up_2[11] I
io_ins_up_2[12] I
io_ins_up_2[13] I
io_ins_up_2[14] I
io_ins_up_2[15] I
io_ins_up_2[16] I
io_ins_up_2[17] I
io_ins_up_2[18] I
io_ins_up_2[19] I
io_ins_up_2[1] I
io_ins_up_2[20] I
io_ins_up_2[21] I
io_ins_up_2[22] I
io_ins_up_2[23] I
io_ins_up_2[24] I
io_ins_up_2[25] I
io_ins_up_2[26] I
io_ins_up_2[27] I
io_ins_up_2[28] I
io_ins_up_2[29] I
io_ins_up_2[2] I
io_ins_up_2[30] I
io_ins_up_2[31] I
io_ins_up_2[32] I
io_ins_up_2[33] I
io_ins_up_2[34] I
io_ins_up_2[35] I
io_ins_up_2[36] I
io_ins_up_2[37] I
io_ins_up_2[38] I
io_ins_up_2[39] I
io_ins_up_2[3] I
io_ins_up_2[40] I
io_ins_up_2[41] I
io_ins_up_2[42] I
io_ins_up_2[43] I
io_ins_up_2[44] I
io_ins_up_2[45] I
io_ins_up_2[46] I
io_ins_up_2[47] I
io_ins_up_2[48] I
io_ins_up_2[49] I
io_ins_up_2[4] I
io_ins_up_2[50] I
io_ins_up_2[51] I
io_ins_up_2[52] I
io_ins_up_2[53] I
io_ins_up_2[54] I
io_ins_up_2[55] I
io_ins_up_2[56] I
io_ins_up_2[57] I
io_ins_up_2[58] I
io_ins_up_2[59] I
io_ins_up_2[5] I
io_ins_up_2[60] I
io_ins_up_2[61] I
io_ins_up_2[62] I
io_ins_up_2[63] I
io_ins_up_2[6] I
io_ins_up_2[7] I
io_ins_up_2[8] I
io_ins_up_2[9] I
io_ins_up_3[0] I
io_ins_up_3[10] I
io_ins_up_3[11] I
io_ins_up_3[12] I
io_ins_up_3[13] I
io_ins_up_3[14] I
io_ins_up_3[15] I
io_ins_up_3[16] I
io_ins_up_3[17] I
io_ins_up_3[18] I
io_ins_up_3[19] I
io_ins_up_3[1] I
io_ins_up_3[20] I
io_ins_up_3[21] I
io_ins_up_3[22] I
io_ins_up_3[23] I
io_ins_up_3[24] I
io_ins_up_3[25] I
io_ins_up_3[26] I
io_ins_up_3[27] I
io_ins_up_3[28] I
io_ins_up_3[29] I
io_ins_up_3[2] I
io_ins_up_3[30] I
io_ins_up_3[31] I
io_ins_up_3[32] I
io_ins_up_3[33] I
io_ins_up_3[34] I
io_ins_up_3[35] I
io_ins_up_3[36] I
io_ins_up_3[37] I
io_ins_up_3[38] I
io_ins_up_3[39] I
io_ins_up_3[3] I
io_ins_up_3[40] I
io_ins_up_3[41] I
io_ins_up_3[42] I
io_ins_up_3[43] I
io_ins_up_3[44] I
io_ins_up_3[45] I
io_ins_up_3[46] I
io_ins_up_3[47] I
io_ins_up_3[48] I
io_ins_up_3[49] I
io_ins_up_3[4] I
io_ins_up_3[50] I
io_ins_up_3[51] I
io_ins_up_3[52] I
io_ins_up_3[53] I
io_ins_up_3[54] I
io_ins_up_3[55] I
io_ins_up_3[56] I
io_ins_up_3[57] I
io_ins_up_3[58] I
io_ins_up_3[59] I
io_ins_up_3[5] I
io_ins_up_3[60] I
io_ins_up_3[61] I
io_ins_up_3[62] I
io_ins_up_3[63] I
io_ins_up_3[6] I
io_ins_up_3[7] I
io_ins_up_3[8] I
io_ins_up_3[9] I
io_lsbs_0 O
io_lsbs_1 O
io_lsbs_10 O
io_lsbs_11 O
io_lsbs_12 O
io_lsbs_13 O
io_lsbs_14 O
io_lsbs_15 O
io_lsbs_2 O
io_lsbs_3 O
io_lsbs_4 O
io_lsbs_5 O
io_lsbs_6 O
io_lsbs_7 O
io_lsbs_8 O
io_lsbs_9 O
io_outs_down_0[0] O
io_outs_down_0[10] O
io_outs_down_0[11] O
io_outs_down_0[12] O
io_outs_down_0[13] O
io_outs_down_0[14] O
io_outs_down_0[15] O
io_outs_down_0[16] O
io_outs_down_0[17] O
io_outs_down_0[18] O
io_outs_down_0[19] O
io_outs_down_0[1] O
io_outs_down_0[20] O
io_outs_down_0[21] O
io_outs_down_0[22] O
io_outs_down_0[23] O
io_outs_down_0[24] O
io_outs_down_0[25] O
io_outs_down_0[26] O
io_outs_down_0[27] O
io_outs_down_0[28] O
io_outs_down_0[29] O
io_outs_down_0[2] O
io_outs_down_0[30] O
io_outs_down_0[31] O
io_outs_down_0[32] O
io_outs_down_0[33] O
io_outs_down_0[34] O
io_outs_down_0[35] O
io_outs_down_0[36] O
io_outs_down_0[37] O
io_outs_down_0[38] O
io_outs_down_0[39] O
io_outs_down_0[3] O
io_outs_down_0[40] O
io_outs_down_0[41] O
io_outs_down_0[42] O
io_outs_down_0[43] O
io_outs_down_0[44] O
io_outs_down_0[45] O
io_outs_down_0[46] O
io_outs_down_0[47] O
io_outs_down_0[48] O
io_outs_down_0[49] O
io_outs_down_0[4] O
io_outs_down_0[50] O
io_outs_down_0[51] O
io_outs_down_0[52] O
io_outs_down_0[53] O
io_outs_down_0[54] O
io_outs_down_0[55] O
io_outs_down_0[56] O
io_outs_down_0[57] O
io_outs_down_0[58] O
io_outs_down_0[59] O
io_outs_down_0[5] O
io_outs_down_0[60] O
io_outs_down_0[61] O
io_outs_down_0[62] O
io_outs_down_0[63] O
io_outs_down_0[6] O
io_outs_down_0[7] O
io_outs_down_0[8] O
io_outs_down_0[9] O
io_outs_down_1[0] O
io_outs_down_1[10] O
io_outs_down_1[11] O
io_outs_down_1[12] O
io_outs_down_1[13] O
io_outs_down_1[14] O
io_outs_down_1[15] O
io_outs_down_1[16] O
io_outs_down_1[17] O
io_outs_down_1[18] O
io_outs_down_1[19] O
io_outs_down_1[1] O
io_outs_down_1[20] O
io_outs_down_1[21] O
io_outs_down_1[22] O
io_outs_down_1[23] O
io_outs_down_1[24] O
io_outs_down_1[25] O
io_outs_down_1[26] O
io_outs_down_1[27] O
io_outs_down_1[28] O
io_outs_down_1[29] O
io_outs_down_1[2] O
io_outs_down_1[30] O
io_outs_down_1[31] O
io_outs_down_1[32] O
io_outs_down_1[33] O
io_outs_down_1[34] O
io_outs_down_1[35] O
io_outs_down_1[36] O
io_outs_down_1[37] O
io_outs_down_1[38] O
io_outs_down_1[39] O
io_outs_down_1[3] O
io_outs_down_1[40] O
io_outs_down_1[41] O
io_outs_down_1[42] O
io_outs_down_1[43] O
io_outs_down_1[44] O
io_outs_down_1[45] O
io_outs_down_1[46] O
io_outs_down_1[47] O
io_outs_down_1[48] O
io_outs_down_1[49] O
io_outs_down_1[4] O
io_outs_down_1[50] O
io_outs_down_1[51] O
io_outs_down_1[52] O
io_outs_down_1[53] O
io_outs_down_1[54] O
io_outs_down_1[55] O
io_outs_down_1[56] O
io_outs_down_1[57] O
io_outs_down_1[58] O
io_outs_down_1[59] O
io_outs_down_1[5] O
io_outs_down_1[60] O
io_outs_down_1[61] O
io_outs_down_1[62] O
io_outs_down_1[63] O
io_outs_down_1[6] O
io_outs_down_1[7] O
io_outs_down_1[8] O
io_outs_down_1[9] O
io_outs_down_2[0] O
io_outs_down_2[10] O
io_outs_down_2[11] O
io_outs_down_2[12] O
io_outs_down_2[13] O
io_outs_down_2[14] O
io_outs_down_2[15] O
io_outs_down_2[16] O
io_outs_down_2[17] O
io_outs_down_2[18] O
io_outs_down_2[19] O
io_outs_down_2[1] O
io_outs_down_2[20] O
io_outs_down_2[21] O
io_outs_down_2[22] O
io_outs_down_2[23] O
io_outs_down_2[24] O
io_outs_down_2[25] O
io_outs_down_2[26] O
io_outs_down_2[27] O
io_outs_down_2[28] O
io_outs_down_2[29] O
io_outs_down_2[2] O
io_outs_down_2[30] O
io_outs_down_2[31] O
io_outs_down_2[32] O
io_outs_down_2[33] O
io_outs_down_2[34] O
io_outs_down_2[35] O
io_outs_down_2[36] O
io_outs_down_2[37] O
io_outs_down_2[38] O
io_outs_down_2[39] O
io_outs_down_2[3] O
io_outs_down_2[40] O
io_outs_down_2[41] O
io_outs_down_2[42] O
io_outs_down_2[43] O
io_outs_down_2[44] O
io_outs_down_2[45] O
io_outs_down_2[46] O
io_outs_down_2[47] O
io_outs_down_2[48] O
io_outs_down_2[49] O
io_outs_down_2[4] O
io_outs_down_2[50] O
io_outs_down_2[51] O
io_outs_down_2[52] O
io_outs_down_2[53] O
io_outs_down_2[54] O
io_outs_down_2[55] O
io_outs_down_2[56] O
io_outs_down_2[57] O
io_outs_down_2[58] O
io_outs_down_2[59] O
io_outs_down_2[5] O
io_outs_down_2[60] O
io_outs_down_2[61] O
io_outs_down_2[62] O
io_outs_down_2[63] O
io_outs_down_2[6] O
io_outs_down_2[7] O
io_outs_down_2[8] O
io_outs_down_2[9] O
io_outs_down_3[0] O
io_outs_down_3[10] O
io_outs_down_3[11] O
io_outs_down_3[12] O
io_outs_down_3[13] O
io_outs_down_3[14] O
io_outs_down_3[15] O
io_outs_down_3[16] O
io_outs_down_3[17] O
io_outs_down_3[18] O
io_outs_down_3[19] O
io_outs_down_3[1] O
io_outs_down_3[20] O
io_outs_down_3[21] O
io_outs_down_3[22] O
io_outs_down_3[23] O
io_outs_down_3[24] O
io_outs_down_3[25] O
io_outs_down_3[26] O
io_outs_down_3[27] O
io_outs_down_3[28] O
io_outs_down_3[29] O
io_outs_down_3[2] O
io_outs_down_3[30] O
io_outs_down_3[31] O
io_outs_down_3[32] O
io_outs_down_3[33] O
io_outs_down_3[34] O
io_outs_down_3[35] O
io_outs_down_3[36] O
io_outs_down_3[37] O
io_outs_down_3[38] O
io_outs_down_3[39] O
io_outs_down_3[3] O
io_outs_down_3[40] O
io_outs_down_3[41] O
io_outs_down_3[42] O
io_outs_down_3[43] O
io_outs_down_3[44] O
io_outs_down_3[45] O
io_outs_down_3[46] O
io_outs_down_3[47] O
io_outs_down_3[48] O
io_outs_down_3[49] O
io_outs_down_3[4] O
io_outs_down_3[50] O
io_outs_down_3[51] O
io_outs_down_3[52] O
io_outs_down_3[53] O
io_outs_down_3[54] O
io_outs_down_3[55] O
io_outs_down_3[56] O
io_outs_down_3[57] O
io_outs_down_3[58] O
io_outs_down_3[59] O
io_outs_down_3[5] O
io_outs_down_3[60] O
io_outs_down_3[61] O
io_outs_down_3[62] O
io_outs_down_3[63] O
io_outs_down_3[6] O
io_outs_down_3[7] O
io_outs_down_3[8] O
io_outs_down_3[9] O
io_outs_left_0[0] O
io_outs_left_0[10] O
io_outs_left_0[11] O
io_outs_left_0[12] O
io_outs_left_0[13] O
io_outs_left_0[14] O
io_outs_left_0[15] O
io_outs_left_0[16] O
io_outs_left_0[17] O
io_outs_left_0[18] O
io_outs_left_0[19] O
io_outs_left_0[1] O
io_outs_left_0[20] O
io_outs_left_0[21] O
io_outs_left_0[22] O
io_outs_left_0[23] O
io_outs_left_0[24] O
io_outs_left_0[25] O
io_outs_left_0[26] O
io_outs_left_0[27] O
io_outs_left_0[28] O
io_outs_left_0[29] O
io_outs_left_0[2] O
io_outs_left_0[30] O
io_outs_left_0[31] O
io_outs_left_0[32] O
io_outs_left_0[33] O
io_outs_left_0[34] O
io_outs_left_0[35] O
io_outs_left_0[36] O
io_outs_left_0[37] O
io_outs_left_0[38] O
io_outs_left_0[39] O
io_outs_left_0[3] O
io_outs_left_0[40] O
io_outs_left_0[41] O
io_outs_left_0[42] O
io_outs_left_0[43] O
io_outs_left_0[44] O
io_outs_left_0[45] O
io_outs_left_0[46] O
io_outs_left_0[47] O
io_outs_left_0[48] O
io_outs_left_0[49] O
io_outs_left_0[4] O
io_outs_left_0[50] O
io_outs_left_0[51] O
io_outs_left_0[52] O
io_outs_left_0[53] O
io_outs_left_0[54] O
io_outs_left_0[55] O
io_outs_left_0[56] O
io_outs_left_0[57] O
io_outs_left_0[58] O
io_outs_left_0[59] O
io_outs_left_0[5] O
io_outs_left_0[60] O
io_outs_left_0[61] O
io_outs_left_0[62] O
io_outs_left_0[63] O
io_outs_left_0[6] O
io_outs_left_0[7] O
io_outs_left_0[8] O
io_outs_left_0[9] O
io_outs_left_1[0] O
io_outs_left_1[10] O
io_outs_left_1[11] O
io_outs_left_1[12] O
io_outs_left_1[13] O
io_outs_left_1[14] O
io_outs_left_1[15] O
io_outs_left_1[16] O
io_outs_left_1[17] O
io_outs_left_1[18] O
io_outs_left_1[19] O
io_outs_left_1[1] O
io_outs_left_1[20] O
io_outs_left_1[21] O
io_outs_left_1[22] O
io_outs_left_1[23] O
io_outs_left_1[24] O
io_outs_left_1[25] O
io_outs_left_1[26] O
io_outs_left_1[27] O
io_outs_left_1[28] O
io_outs_left_1[29] O
io_outs_left_1[2] O
io_outs_left_1[30] O
io_outs_left_1[31] O
io_outs_left_1[32] O
io_outs_left_1[33] O
io_outs_left_1[34] O
io_outs_left_1[35] O
io_outs_left_1[36] O
io_outs_left_1[37] O
io_outs_left_1[38] O
io_outs_left_1[39] O
io_outs_left_1[3] O
io_outs_left_1[40] O
io_outs_left_1[41] O
io_outs_left_1[42] O
io_outs_left_1[43] O
io_outs_left_1[44] O
io_outs_left_1[45] O
io_outs_left_1[46] O
io_outs_left_1[47] O
io_outs_left_1[48] O
io_outs_left_1[49] O
io_outs_left_1[4] O
io_outs_left_1[50] O
io_outs_left_1[51] O
io_outs_left_1[52] O
io_outs_left_1[53] O
io_outs_left_1[54] O
io_outs_left_1[55] O
io_outs_left_1[56] O
io_outs_left_1[57] O
io_outs_left_1[58] O
io_outs_left_1[59] O
io_outs_left_1[5] O
io_outs_left_1[60] O
io_outs_left_1[61] O
io_outs_left_1[62] O
io_outs_left_1[63] O
io_outs_left_1[6] O
io_outs_left_1[7] O
io_outs_left_1[8] O
io_outs_left_1[9] O
io_outs_left_2[0] O
io_outs_left_2[10] O
io_outs_left_2[11] O
io_outs_left_2[12] O
io_outs_left_2[13] O
io_outs_left_2[14] O
io_outs_left_2[15] O
io_outs_left_2[16] O
io_outs_left_2[17] O
io_outs_left_2[18] O
io_outs_left_2[19] O
io_outs_left_2[1] O
io_outs_left_2[20] O
io_outs_left_2[21] O
io_outs_left_2[22] O
io_outs_left_2[23] O
io_outs_left_2[24] O
io_outs_left_2[25] O
io_outs_left_2[26] O
io_outs_left_2[27] O
io_outs_left_2[28] O
io_outs_left_2[29] O
io_outs_left_2[2] O
io_outs_left_2[30] O
io_outs_left_2[31] O
io_outs_left_2[32] O
io_outs_left_2[33] O
io_outs_left_2[34] O
io_outs_left_2[35] O
io_outs_left_2[36] O
io_outs_left_2[37] O
io_outs_left_2[38] O
io_outs_left_2[39] O
io_outs_left_2[3] O
io_outs_left_2[40] O
io_outs_left_2[41] O
io_outs_left_2[42] O
io_outs_left_2[43] O
io_outs_left_2[44] O
io_outs_left_2[45] O
io_outs_left_2[46] O
io_outs_left_2[47] O
io_outs_left_2[48] O
io_outs_left_2[49] O
io_outs_left_2[4] O
io_outs_left_2[50] O
io_outs_left_2[51] O
io_outs_left_2[52] O
io_outs_left_2[53] O
io_outs_left_2[54] O
io_outs_left_2[55] O
io_outs_left_2[56] O
io_outs_left_2[57] O
io_outs_left_2[58] O
io_outs_left_2[59] O
io_outs_left_2[5] O
io_outs_left_2[60] O
io_outs_left_2[61] O
io_outs_left_2[62] O
io_outs_left_2[63] O
io_outs_left_2[6] O
io_outs_left_2[7] O
io_outs_left_2[8] O
io_outs_left_2[9] O
io_outs_left_3[0] O
io_outs_left_3[10] O
io_outs_left_3[11] O
io_outs_left_3[12] O