*SPEF "ieee 1481-1999"
*DESIGN "gcd"
*DATE "10:03:17 Monday December 16, 2024"
*VENDOR "The OpenROAD Project"
*PROGRAM "OpenROAD"
*VERSION "v2.0-17585-g87af90f72"
*DESIGN_FLOW "NAME_SCOPE LOCAL" "PIN_CAP NONE"
*DIVIDER /
*DELIMITER :
*BUS_DELIMITER []
*T_UNIT 1 NS
*C_UNIT 1 PF
*R_UNIT 1 OHM
*L_UNIT 1 HENRY

*NAME_MAP
*1 _000_
*2 _001_
*3 _002_
*4 _003_
*5 _004_
*6 _005_
*7 _006_
*8 _007_
*9 _008_
*10 _009_
*11 _010_
*12 _011_
*13 _012_
*14 _013_
*15 _014_
*16 _015_
*17 _016_
*18 _017_
*19 _018_
*20 _019_
*21 _020_
*22 _021_
*23 _022_
*24 _023_
*25 _024_
*26 _025_
*27 _026_
*28 _027_
*29 _028_
*30 _029_
*31 _030_
*32 _031_
*33 _032_
*34 _033_
*35 _034_
*36 _035_
*37 _036_
*38 _037_
*39 _038_
*40 _039_
*41 _040_
*42 _041_
*43 _042_
*44 _043_
*45 _044_
*46 _045_
*47 _046_
*48 _047_
*49 _048_
*50 _049_
*51 _050_
*52 _051_
*53 _052_
*54 _053_
*55 _054_
*56 _055_
*57 _056_
*58 _057_
*59 _058_
*60 _059_
*61 _060_
*62 _061_
*63 _062_
*64 _063_
*65 _064_
*66 _065_
*67 _066_
*68 _067_
*69 _068_
*70 _069_
*71 _070_
*72 _071_
*73 _072_
*74 _073_
*75 _074_
*76 _075_
*77 _076_
*78 _077_
*79 _078_
*80 _079_
*81 _080_
*82 _081_
*83 _082_
*84 _083_
*85 _084_
*86 _085_
*87 _086_
*88 _087_
*89 _088_
*90 _089_
*91 _090_
*92 _091_
*93 _092_
*94 _093_
*95 _094_
*96 _095_
*97 _096_
*98 _097_
*99 _098_
*100 _099_
*101 _100_
*102 _101_
*103 _102_
*104 _103_
*105 _104_
*106 _105_
*107 _106_
*108 _107_
*109 _108_
*110 _109_
*111 _110_
*112 _111_
*113 _112_
*114 _113_
*115 _114_
*116 _115_
*117 _116_
*118 _117_
*119 _118_
*120 _119_
*121 _120_
*122 _121_
*123 _122_
*124 _123_
*125 _124_
*126 _125_
*127 _126_
*128 _127_
*129 _128_
*130 _129_
*131 _130_
*132 _131_
*133 _132_
*134 _133_
*135 _134_
*136 _135_
*137 _136_
*138 _137_
*139 _138_
*140 _139_
*141 _140_
*142 _141_
*143 _142_
*144 _143_
*145 _144_
*146 _145_
*147 _146_
*148 _147_
*149 _148_
*150 _149_
*151 _150_
*152 _151_
*153 net2
*154 net1
*155 _154_
*156 _155_
*157 _156_
*158 _157_
*159 _158_
*160 _159_
*161 _160_
*162 _161_
*163 _162_
*164 _163_
*165 _164_
*166 _165_
*167 _166_
*168 _167_
*169 _168_
*170 _169_
*171 clknet_2_3__leaf_clk
*172 _171_
*173 _172_
*174 clknet_2_2__leaf_clk
*175 _174_
*176 _175_
*177 _176_
*178 _177_
*179 clknet_2_1__leaf_clk
*180 _179_
*181 _180_
*182 _181_
*183 _182_
*184 _183_
*185 _184_
*186 _185_
*187 _186_
*188 _187_
*189 _188_
*190 _189_
*191 _190_
*192 _191_
*193 _192_
*194 _193_
*195 _194_
*196 clknet_2_0__leaf_clk
*197 _196_
*198 _197_
*199 _198_
*200 _199_
*201 _200_
*202 _201_
*203 _202_
*204 _203_
*205 clknet_0_clk
*206 _205_
*208 _207_
*209 _208_
*210 _209_
*211 _210_
*212 _211_
*213 _212_
*215 _214_
*216 _215_
*217 _216_
*218 _217_
*219 _218_
*220 _219_
*221 _220_
*222 _221_
*223 _222_
*224 _223_
*225 _224_
*226 _225_
*227 _226_
*228 _227_
*229 _228_
*230 _229_
*231 _230_
*232 _231_
*233 _232_
*234 _233_
*235 _234_
*236 _235_
*237 _236_
*238 _237_
*239 _238_
*240 _239_
*241 _240_
*242 _241_
*243 _242_
*244 _243_
*245 _244_
*246 _245_
*247 _246_
*248 _247_
*249 _248_
*250 _249_
*251 _250_
*252 _251_
*253 clk
*254 ctrl\.state\.out\[1\]
*255 ctrl\.state\.out\[2\]
*256 dpath\.a_lt_b\$in0\[0\]
*257 dpath\.a_lt_b\$in0\[10\]
*258 dpath\.a_lt_b\$in0\[11\]
*259 dpath\.a_lt_b\$in0\[12\]
*260 dpath\.a_lt_b\$in0\[13\]
*261 dpath\.a_lt_b\$in0\[14\]
*262 dpath\.a_lt_b\$in0\[15\]
*263 dpath\.a_lt_b\$in0\[1\]
*264 dpath\.a_lt_b\$in0\[2\]
*265 dpath\.a_lt_b\$in0\[3\]
*266 dpath\.a_lt_b\$in0\[4\]
*267 dpath\.a_lt_b\$in0\[5\]
*268 dpath\.a_lt_b\$in0\[6\]
*269 dpath\.a_lt_b\$in0\[7\]
*270 dpath\.a_lt_b\$in0\[8\]
*271 dpath\.a_lt_b\$in0\[9\]
*272 dpath\.a_lt_b\$in1\[0\]
*273 dpath\.a_lt_b\$in1\[10\]
*274 dpath\.a_lt_b\$in1\[11\]
*275 dpath\.a_lt_b\$in1\[12\]
*276 dpath\.a_lt_b\$in1\[13\]
*277 dpath\.a_lt_b\$in1\[14\]
*278 dpath\.a_lt_b\$in1\[15\]
*279 dpath\.a_lt_b\$in1\[1\]
*280 dpath\.a_lt_b\$in1\[2\]
*281 dpath\.a_lt_b\$in1\[3\]
*282 dpath\.a_lt_b\$in1\[4\]
*283 dpath\.a_lt_b\$in1\[5\]
*284 dpath\.a_lt_b\$in1\[6\]
*285 dpath\.a_lt_b\$in1\[7\]
*286 dpath\.a_lt_b\$in1\[8\]
*287 dpath\.a_lt_b\$in1\[9\]
*288 req_msg[0]
*289 req_msg[10]
*290 req_msg[11]
*291 req_msg[12]
*292 req_msg[13]
*293 req_msg[14]
*294 req_msg[15]
*295 req_msg[16]
*296 req_msg[17]
*297 req_msg[18]
*298 req_msg[19]
*299 req_msg[1]
*300 req_msg[20]
*301 req_msg[21]
*302 req_msg[22]
*303 req_msg[23]
*304 req_msg[24]
*305 req_msg[25]
*306 req_msg[26]
*307 req_msg[27]
*308 req_msg[28]
*309 req_msg[29]
*310 req_msg[2]
*311 req_msg[30]
*312 req_msg[31]
*313 req_msg[3]
*314 req_msg[4]
*315 req_msg[5]
*316 req_msg[6]
*317 req_msg[7]
*318 req_msg[8]
*319 req_msg[9]
*320 req_rdy
*321 req_val
*322 reset
*323 resp_msg[0]
*324 resp_msg[10]
*325 resp_msg[11]
*326 resp_msg[12]
*327 resp_msg[13]
*328 resp_msg[14]
*329 resp_msg[15]
*330 resp_msg[1]
*331 resp_msg[2]
*332 resp_msg[3]
*333 resp_msg[4]
*334 resp_msg[5]
*335 resp_msg[6]
*336 resp_msg[7]
*337 resp_msg[8]
*338 resp_msg[9]
*339 resp_rdy
*340 resp_val
*341 net3
*342 net4
*343 net5
*344 net6
*345 net7
*346 net8
*347 net9
*348 net10
*349 net11
*350 net12
*351 net13
*352 net14
*353 net15
*354 net16
*355 net17
*356 net18
*357 net19
*358 net20
*359 net21
*360 net22
*361 net23
*362 net24
*363 net25
*364 net26
*365 net27
*366 net28
*367 net29
*368 net30
*369 net31
*370 net32
*371 net33
*372 net34
*373 net35
*374 net36
*375 net37
*376 net38
*377 net39
*378 net40
*379 net41
*380 net42
*381 net43
*382 net44
*383 net45
*384 _252_
*385 _253_
*386 _254_
*387 _255_
*388 _256_
*389 _257_
*390 _258_
*391 _259_
*392 _260_
*393 _261_
*394 _262_
*395 _263_
*396 _264_
*397 _265_
*398 _266_
*399 _267_
*400 _268_
*401 _269_
*402 _270_
*403 _271_
*404 _272_
*405 _273_
*406 _274_
*407 _275_
*408 _276_
*409 _277_
*410 _278_
*411 _279_
*412 _280_
*413 _281_
*414 _282_
*415 _283_
*416 _284_
*417 _285_
*418 _286_
*419 _287_
*420 _288_
*421 _289_
*422 _290_
*423 _291_
*424 _292_
*425 _293_
*426 _294_
*427 _295_
*428 _296_
*429 _297_
*430 _298_
*431 _299_
*432 _300_
*433 _301_
*434 _302_
*435 _303_
*436 _304_
*437 _305_
*438 _306_
*439 _307_
*440 _308_
*441 _309_
*442 _310_
*443 _311_
*444 _312_
*445 _313_
*446 _314_
*447 _315_
*448 _316_
*449 _317_
*450 _318_
*451 _319_
*452 _320_
*453 _321_
*454 _322_
*455 _323_
*456 _324_
*457 _325_
*458 _326_
*459 _327_
*460 _328_
*461 _329_
*462 _330_
*463 _331_
*464 _332_
*465 _333_
*466 _334_
*467 _335_
*468 _336_
*469 _337_
*470 _338_
*471 _339_
*472 _340_
*473 _341_
*474 _342_
*475 _343_
*476 _344_
*477 _345_
*478 _346_
*479 _347_
*480 _348_
*481 _349_
*482 _350_
*483 _351_
*484 _352_
*485 _353_
*486 _354_
*487 _355_
*488 _356_
*489 _357_
*490 _358_
*491 _359_
*492 _360_
*493 _361_
*494 _362_
*495 _363_
*496 _364_
*497 _365_
*498 _366_
*499 _367_
*500 _368_
*501 _369_
*502 _370_
*503 _371_
*504 _372_
*505 _373_
*506 _374_
*507 _375_
*508 _376_
*509 _377_
*510 _378_
*511 _379_
*512 _380_
*513 _381_
*514 _382_
*515 _383_
*516 _384_
*517 TAP_TAPCELL_ROW_0_8
*518 TAP_TAPCELL_ROW_0_7
*519 _387_
*520 _388_
*521 _389_
*522 _390_
*523 _391_
*524 _392_
*525 _393_
*526 _394_
*527 _395_
*528 _396_
*529 _397_
*530 _398_
*531 _399_
*532 _400_
*533 _401_
*534 _402_
*535 _403_
*536 _404_
*537 _405_
*538 _406_
*539 TAP_TAPCELL_ROW_0_6
*540 _408_
*541 _409_
*542 TAP_TAPCELL_ROW_0_5
*543 _411_
*544 _412_
*545 _413_
*546 _414_
*547 _415_
*548 _416_
*549 _417_
*550 TAP_TAPCELL_ROW_0_4
*551 _419_
*552 _420_
*553 _421_
*554 _422_
*555 _423_
*556 _424_
*557 _425_
*558 _426_
*559 _427_
*560 _428_
*561 _429_
*562 _430_
*563 _431_
*564 _432_
*565 _433_
*566 _434_
*567 _435_
*568 _436_
*569 _437_
*570 _438_
*571 _439_
*572 _440_
*573 _441_
*574 _442_
*575 _443_
*576 TAP_TAPCELL_ROW_0_3
*577 _445_
*578 _446_
*579 _447_
*580 _448_
*581 _449_
*582 _450_
*583 _451_
*584 _452_
*585 _453_
*586 _454_
*587 _455_
*588 _456_
*589 TAP_TAPCELL_ROW_0_2
*590 _458_
*591 TAP_TAPCELL_ROW_0_1
*592 _460_
*593 _461_
*594 _462_
*595 _463_
*596 _464_
*597 _465_
*598 _466_
*599 _467_
*600 TAP_TAPCELL_ROW_0_0
*601 _469_
*602 _470_
*603 _471_
*604 _472_
*605 _473_
*606 _474_
*607 _475_
*608 _476_
*609 _477_
*610 _478_
*611 _479_
*612 _480_
*613 _481_
*614 _482_
*615 _483_
*616 _484_
*617 _485_
*618 _486_
*619 _487_
*620 _488_
*621 _489_
*622 _490_
*623 _491_
*624 _492_
*625 _493_
*626 _494_
*627 _495_
*628 _496_
*629 _497_
*630 _498_
*631 _499_
*632 _500_
*633 _501_
*634 _502_
*635 _503_
*636 _504_
*637 _505_
*638 _506_
*639 _507_
*640 _508_
*641 _509_
*642 _510_
*643 _511_
*644 _512_
*645 _513_
*646 _514_
*647 _515_
*648 _516_
*649 _517_
*650 _518_
*651 _519_
*652 _520_
*653 _521_
*654 _522_
*655 _523_
*656 _524_
*657 _525_
*658 _526_
*659 _527_
*660 _528_
*661 _529_
*662 _530_
*663 _531_
*664 _532_
*665 _533_
*666 _534_
*667 _535_
*668 _536_
*669 _537_
*670 _538_
*671 _539_
*672 _540_
*673 _541_
*674 _542_
*675 _543_
*676 _544_
*677 _545_
*678 _546_
*679 _547_
*680 _548_
*681 _549_
*682 _550_
*683 _551_
*684 _552_
*685 _553_
*686 _554_
*687 _555_
*688 TAP_TAPCELL_ROW_0_9
*689 TAP_TAPCELL_ROW_0_10
*690 TAP_TAPCELL_ROW_0_11
*691 TAP_TAPCELL_ROW_0_12
*692 TAP_TAPCELL_ROW_0_13
*693 TAP_TAPCELL_ROW_0_14
*694 TAP_TAPCELL_ROW_0_15
*695 TAP_TAPCELL_ROW_0_16
*696 TAP_TAPCELL_ROW_0_17
*697 TAP_TAPCELL_ROW_0_18
*698 TAP_TAPCELL_ROW_0_19
*699 TAP_TAPCELL_ROW_1_20
*700 TAP_TAPCELL_ROW_1_21
*701 TAP_TAPCELL_ROW_1_22
*702 TAP_TAPCELL_ROW_1_23
*703 TAP_TAPCELL_ROW_1_24
*704 TAP_TAPCELL_ROW_1_25
*705 TAP_TAPCELL_ROW_1_26
*706 TAP_TAPCELL_ROW_1_27
*707 TAP_TAPCELL_ROW_1_28
*708 TAP_TAPCELL_ROW_1_29
*709 TAP_TAPCELL_ROW_2_30
*710 TAP_TAPCELL_ROW_2_31
*711 TAP_TAPCELL_ROW_2_32
*712 TAP_TAPCELL_ROW_2_33
*713 TAP_TAPCELL_ROW_2_34
*714 TAP_TAPCELL_ROW_2_35
*715 TAP_TAPCELL_ROW_2_36
*716 TAP_TAPCELL_ROW_2_37
*717 TAP_TAPCELL_ROW_2_38
*718 TAP_TAPCELL_ROW_2_39
*719 TAP_TAPCELL_ROW_3_40
*720 TAP_TAPCELL_ROW_3_41
*721 TAP_TAPCELL_ROW_3_42
*722 TAP_TAPCELL_ROW_3_43
*723 TAP_TAPCELL_ROW_3_44
*724 TAP_TAPCELL_ROW_3_45
*725 TAP_TAPCELL_ROW_3_46
*726 TAP_TAPCELL_ROW_3_47
*727 TAP_TAPCELL_ROW_3_48
*728 TAP_TAPCELL_ROW_3_49
*729 TAP_TAPCELL_ROW_4_50
*730 TAP_TAPCELL_ROW_4_51
*731 TAP_TAPCELL_ROW_4_52
*732 TAP_TAPCELL_ROW_4_53
*733 TAP_TAPCELL_ROW_4_54
*734 TAP_TAPCELL_ROW_4_55
*735 TAP_TAPCELL_ROW_4_56
*736 TAP_TAPCELL_ROW_4_57
*737 TAP_TAPCELL_ROW_4_58
*738 TAP_TAPCELL_ROW_4_59
*739 TAP_TAPCELL_ROW_5_60
*740 TAP_TAPCELL_ROW_5_61
*741 TAP_TAPCELL_ROW_5_62
*742 TAP_TAPCELL_ROW_5_63
*743 TAP_TAPCELL_ROW_5_64
*744 TAP_TAPCELL_ROW_5_65
*745 TAP_TAPCELL_ROW_5_66
*746 TAP_TAPCELL_ROW_5_67
*747 TAP_TAPCELL_ROW_5_68
*748 TAP_TAPCELL_ROW_5_69
*749 TAP_TAPCELL_ROW_6_70
*750 TAP_TAPCELL_ROW_6_71
*751 TAP_TAPCELL_ROW_6_72
*752 TAP_TAPCELL_ROW_6_73
*753 TAP_TAPCELL_ROW_6_74
*754 TAP_TAPCELL_ROW_6_75
*755 TAP_TAPCELL_ROW_6_76
*756 TAP_TAPCELL_ROW_6_77
*757 TAP_TAPCELL_ROW_6_78
*758 TAP_TAPCELL_ROW_6_79
*759 TAP_TAPCELL_ROW_7_80
*760 TAP_TAPCELL_ROW_7_81
*761 TAP_TAPCELL_ROW_7_82
*762 TAP_TAPCELL_ROW_7_83
*763 TAP_TAPCELL_ROW_7_84
*764 TAP_TAPCELL_ROW_7_85
*765 TAP_TAPCELL_ROW_7_86
*766 TAP_TAPCELL_ROW_7_87
*767 TAP_TAPCELL_ROW_7_88
*768 TAP_TAPCELL_ROW_7_89
*769 TAP_TAPCELL_ROW_8_90
*770 TAP_TAPCELL_ROW_8_91
*771 TAP_TAPCELL_ROW_8_92
*772 TAP_TAPCELL_ROW_8_93
*773 TAP_TAPCELL_ROW_8_94
*774 TAP_TAPCELL_ROW_8_95
*775 TAP_TAPCELL_ROW_8_96
*776 TAP_TAPCELL_ROW_8_97
*777 TAP_TAPCELL_ROW_8_98
*778 TAP_TAPCELL_ROW_8_99
*779 TAP_TAPCELL_ROW_9_100
*780 TAP_TAPCELL_ROW_9_101
*781 TAP_TAPCELL_ROW_9_102
*782 TAP_TAPCELL_ROW_9_103
*783 TAP_TAPCELL_ROW_9_104
*784 TAP_TAPCELL_ROW_9_105
*785 TAP_TAPCELL_ROW_9_106
*786 TAP_TAPCELL_ROW_9_107
*787 TAP_TAPCELL_ROW_9_108
*788 TAP_TAPCELL_ROW_9_109
*789 TAP_TAPCELL_ROW_10_110
*790 TAP_TAPCELL_ROW_10_111
*791 TAP_TAPCELL_ROW_10_112
*792 TAP_TAPCELL_ROW_10_113
*793 TAP_TAPCELL_ROW_10_114
*794 TAP_TAPCELL_ROW_10_115
*795 TAP_TAPCELL_ROW_10_116
*796 TAP_TAPCELL_ROW_10_117
*797 TAP_TAPCELL_ROW_10_118
*798 TAP_TAPCELL_ROW_10_119
*799 TAP_TAPCELL_ROW_11_120
*800 TAP_TAPCELL_ROW_11_121
*801 TAP_TAPCELL_ROW_11_122
*802 TAP_TAPCELL_ROW_11_123
*803 TAP_TAPCELL_ROW_11_124
*804 TAP_TAPCELL_ROW_11_125
*805 TAP_TAPCELL_ROW_11_126
*806 TAP_TAPCELL_ROW_11_127
*807 TAP_TAPCELL_ROW_11_128
*808 TAP_TAPCELL_ROW_11_129
*809 TAP_TAPCELL_ROW_12_130
*810 TAP_TAPCELL_ROW_12_131
*811 TAP_TAPCELL_ROW_12_132
*812 TAP_TAPCELL_ROW_12_133
*813 TAP_TAPCELL_ROW_12_134
*814 TAP_TAPCELL_ROW_12_135
*815 TAP_TAPCELL_ROW_12_136
*816 TAP_TAPCELL_ROW_12_137
*817 TAP_TAPCELL_ROW_12_138
*818 TAP_TAPCELL_ROW_12_139
*819 TAP_TAPCELL_ROW_13_140
*820 TAP_TAPCELL_ROW_13_141
*821 TAP_TAPCELL_ROW_13_142
*822 TAP_TAPCELL_ROW_13_143
*823 TAP_TAPCELL_ROW_13_144
*824 TAP_TAPCELL_ROW_13_145
*825 TAP_TAPCELL_ROW_13_146
*826 TAP_TAPCELL_ROW_13_147
*827 TAP_TAPCELL_ROW_13_148
*828 TAP_TAPCELL_ROW_13_149
*829 TAP_TAPCELL_ROW_14_150
*830 TAP_TAPCELL_ROW_14_151
*831 TAP_TAPCELL_ROW_14_152
*832 TAP_TAPCELL_ROW_14_153
*833 TAP_TAPCELL_ROW_14_154
*834 TAP_TAPCELL_ROW_14_155
*835 TAP_TAPCELL_ROW_14_156
*836 TAP_TAPCELL_ROW_14_157
*837 TAP_TAPCELL_ROW_14_158
*838 TAP_TAPCELL_ROW_14_159
*839 TAP_TAPCELL_ROW_15_160
*840 TAP_TAPCELL_ROW_15_161
*841 TAP_TAPCELL_ROW_15_162
*842 TAP_TAPCELL_ROW_15_163
*843 TAP_TAPCELL_ROW_15_164
*844 TAP_TAPCELL_ROW_15_165
*845 TAP_TAPCELL_ROW_15_166
*846 TAP_TAPCELL_ROW_15_167
*847 TAP_TAPCELL_ROW_15_168
*848 TAP_TAPCELL_ROW_15_169
*849 TAP_TAPCELL_ROW_16_170
*850 TAP_TAPCELL_ROW_16_171
*851 TAP_TAPCELL_ROW_16_172
*852 TAP_TAPCELL_ROW_16_173
*853 TAP_TAPCELL_ROW_16_174
*854 TAP_TAPCELL_ROW_16_175
*855 TAP_TAPCELL_ROW_16_176
*856 TAP_TAPCELL_ROW_16_177
*857 TAP_TAPCELL_ROW_16_178
*858 TAP_TAPCELL_ROW_16_179
*859 TAP_TAPCELL_ROW_17_180
*860 TAP_TAPCELL_ROW_17_181
*861 TAP_TAPCELL_ROW_17_182
*862 TAP_TAPCELL_ROW_17_183
*863 TAP_TAPCELL_ROW_17_184
*864 TAP_TAPCELL_ROW_17_185
*865 TAP_TAPCELL_ROW_17_186
*866 TAP_TAPCELL_ROW_17_187
*867 TAP_TAPCELL_ROW_17_188
*868 TAP_TAPCELL_ROW_17_189
*869 TAP_TAPCELL_ROW_18_190
*870 TAP_TAPCELL_ROW_18_191
*871 TAP_TAPCELL_ROW_18_192
*872 TAP_TAPCELL_ROW_18_193
*873 TAP_TAPCELL_ROW_18_194
*874 TAP_TAPCELL_ROW_18_195
*875 TAP_TAPCELL_ROW_18_196
*876 TAP_TAPCELL_ROW_18_197
*877 TAP_TAPCELL_ROW_18_198
*878 TAP_TAPCELL_ROW_18_199
*879 TAP_TAPCELL_ROW_19_200
*880 TAP_TAPCELL_ROW_19_201
*881 TAP_TAPCELL_ROW_19_202
*882 TAP_TAPCELL_ROW_19_203
*883 TAP_TAPCELL_ROW_19_204
*884 TAP_TAPCELL_ROW_19_205
*885 TAP_TAPCELL_ROW_19_206
*886 TAP_TAPCELL_ROW_19_207
*887 TAP_TAPCELL_ROW_19_208
*888 TAP_TAPCELL_ROW_19_209
*889 TAP_TAPCELL_ROW_20_210
*890 TAP_TAPCELL_ROW_20_211
*891 TAP_TAPCELL_ROW_20_212
*892 TAP_TAPCELL_ROW_20_213
*893 TAP_TAPCELL_ROW_20_214
*894 TAP_TAPCELL_ROW_20_215
*895 TAP_TAPCELL_ROW_20_216
*896 TAP_TAPCELL_ROW_20_217
*897 TAP_TAPCELL_ROW_20_218
*898 TAP_TAPCELL_ROW_20_219
*899 TAP_TAPCELL_ROW_21_220
*900 TAP_TAPCELL_ROW_21_221
*901 TAP_TAPCELL_ROW_21_222
*902 TAP_TAPCELL_ROW_21_223
*903 TAP_TAPCELL_ROW_21_224
*904 TAP_TAPCELL_ROW_21_225
*905 TAP_TAPCELL_ROW_21_226
*906 TAP_TAPCELL_ROW_21_227
*907 TAP_TAPCELL_ROW_21_228
*908 TAP_TAPCELL_ROW_21_229
*909 TAP_TAPCELL_ROW_22_230
*910 TAP_TAPCELL_ROW_22_231
*911 TAP_TAPCELL_ROW_22_232
*912 TAP_TAPCELL_ROW_22_233
*913 TAP_TAPCELL_ROW_22_234
*914 TAP_TAPCELL_ROW_22_235
*915 TAP_TAPCELL_ROW_22_236
*916 TAP_TAPCELL_ROW_22_237
*917 TAP_TAPCELL_ROW_22_238
*918 TAP_TAPCELL_ROW_22_239
*919 TAP_TAPCELL_ROW_23_240
*920 TAP_TAPCELL_ROW_23_241
*921 TAP_TAPCELL_ROW_23_242
*922 TAP_TAPCELL_ROW_23_243
*923 TAP_TAPCELL_ROW_23_244
*924 TAP_TAPCELL_ROW_23_245
*925 TAP_TAPCELL_ROW_23_246
*926 TAP_TAPCELL_ROW_23_247
*927 TAP_TAPCELL_ROW_23_248
*928 TAP_TAPCELL_ROW_23_249
*929 TAP_TAPCELL_ROW_24_250
*930 TAP_TAPCELL_ROW_24_251
*931 TAP_TAPCELL_ROW_24_252
*932 TAP_TAPCELL_ROW_24_253
*933 TAP_TAPCELL_ROW_24_254
*934 TAP_TAPCELL_ROW_24_255
*935 TAP_TAPCELL_ROW_24_256
*936 TAP_TAPCELL_ROW_24_257
*937 TAP_TAPCELL_ROW_24_258
*938 TAP_TAPCELL_ROW_24_259
*939 TAP_TAPCELL_ROW_25_260
*940 TAP_TAPCELL_ROW_25_261
*941 TAP_TAPCELL_ROW_25_262
*942 TAP_TAPCELL_ROW_25_263
*943 TAP_TAPCELL_ROW_25_264
*944 TAP_TAPCELL_ROW_25_265
*945 TAP_TAPCELL_ROW_25_266
*946 TAP_TAPCELL_ROW_25_267
*947 TAP_TAPCELL_ROW_25_268
*948 TAP_TAPCELL_ROW_25_269
*949 TAP_TAPCELL_ROW_26_270
*950 TAP_TAPCELL_ROW_26_271
*951 TAP_TAPCELL_ROW_26_272
*952 TAP_TAPCELL_ROW_26_273
*953 TAP_TAPCELL_ROW_26_274
*954 TAP_TAPCELL_ROW_26_275
*955 TAP_TAPCELL_ROW_26_276
*956 TAP_TAPCELL_ROW_26_277
*957 TAP_TAPCELL_ROW_26_278
*958 TAP_TAPCELL_ROW_26_279
*959 TAP_TAPCELL_ROW_27_280
*960 TAP_TAPCELL_ROW_27_281
*961 TAP_TAPCELL_ROW_27_282
*962 TAP_TAPCELL_ROW_27_283
*963 TAP_TAPCELL_ROW_27_284
*964 TAP_TAPCELL_ROW_27_285
*965 TAP_TAPCELL_ROW_27_286
*966 TAP_TAPCELL_ROW_27_287
*967 TAP_TAPCELL_ROW_27_288
*968 TAP_TAPCELL_ROW_27_289
*969 TAP_TAPCELL_ROW_28_290
*970 TAP_TAPCELL_ROW_28_291
*971 TAP_TAPCELL_ROW_28_292
*972 TAP_TAPCELL_ROW_28_293
*973 TAP_TAPCELL_ROW_28_294
*974 TAP_TAPCELL_ROW_28_295
*975 TAP_TAPCELL_ROW_28_296
*976 TAP_TAPCELL_ROW_28_297
*977 TAP_TAPCELL_ROW_28_298
*978 TAP_TAPCELL_ROW_28_299
*979 TAP_TAPCELL_ROW_29_300
*980 TAP_TAPCELL_ROW_29_301
*981 TAP_TAPCELL_ROW_29_302
*982 TAP_TAPCELL_ROW_29_303
*983 TAP_TAPCELL_ROW_29_304
*984 TAP_TAPCELL_ROW_29_305
*985 TAP_TAPCELL_ROW_29_306
*986 TAP_TAPCELL_ROW_29_307
*987 TAP_TAPCELL_ROW_29_308
*988 TAP_TAPCELL_ROW_29_309
*989 TAP_TAPCELL_ROW_30_310
*990 TAP_TAPCELL_ROW_30_311
*991 TAP_TAPCELL_ROW_30_312
*992 TAP_TAPCELL_ROW_30_313
*993 TAP_TAPCELL_ROW_30_314
*994 TAP_TAPCELL_ROW_30_315
*995 TAP_TAPCELL_ROW_30_316
*996 TAP_TAPCELL_ROW_30_317
*997 TAP_TAPCELL_ROW_30_318
*998 TAP_TAPCELL_ROW_30_319
*999 TAP_TAPCELL_ROW_31_320
*1000 TAP_TAPCELL_ROW_31_321
*1001 TAP_TAPCELL_ROW_31_322
*1002 TAP_TAPCELL_ROW_31_323
*1003 TAP_TAPCELL_ROW_31_324
*1004 TAP_TAPCELL_ROW_31_325
*1005 TAP_TAPCELL_ROW_31_326
*1006 TAP_TAPCELL_ROW_31_327
*1007 TAP_TAPCELL_ROW_31_328
*1008 TAP_TAPCELL_ROW_31_329
*1009 TAP_TAPCELL_ROW_32_330
*1010 TAP_TAPCELL_ROW_32_331
*1011 TAP_TAPCELL_ROW_32_332
*1012 TAP_TAPCELL_ROW_32_333
*1013 TAP_TAPCELL_ROW_32_334
*1014 TAP_TAPCELL_ROW_32_335
*1015 TAP_TAPCELL_ROW_32_336
*1016 TAP_TAPCELL_ROW_32_337
*1017 TAP_TAPCELL_ROW_32_338
*1018 TAP_TAPCELL_ROW_32_339
*1019 TAP_TAPCELL_ROW_33_340
*1020 TAP_TAPCELL_ROW_33_341
*1021 TAP_TAPCELL_ROW_33_342
*1022 TAP_TAPCELL_ROW_33_343
*1023 TAP_TAPCELL_ROW_33_344
*1024 TAP_TAPCELL_ROW_33_345
*1025 TAP_TAPCELL_ROW_33_346
*1026 TAP_TAPCELL_ROW_33_347
*1027 TAP_TAPCELL_ROW_33_348
*1028 TAP_TAPCELL_ROW_33_349
*1029 TAP_TAPCELL_ROW_34_350
*1030 TAP_TAPCELL_ROW_34_351
*1031 TAP_TAPCELL_ROW_34_352
*1032 TAP_TAPCELL_ROW_34_353
*1033 TAP_TAPCELL_ROW_34_354
*1034 TAP_TAPCELL_ROW_34_355
*1035 TAP_TAPCELL_ROW_34_356
*1036 TAP_TAPCELL_ROW_34_357
*1037 TAP_TAPCELL_ROW_34_358
*1038 TAP_TAPCELL_ROW_34_359
*1039 TAP_TAPCELL_ROW_35_360
*1040 TAP_TAPCELL_ROW_35_361
*1041 TAP_TAPCELL_ROW_35_362
*1042 TAP_TAPCELL_ROW_35_363
*1043 TAP_TAPCELL_ROW_35_364
*1044 TAP_TAPCELL_ROW_35_365
*1045 TAP_TAPCELL_ROW_35_366
*1046 TAP_TAPCELL_ROW_35_367
*1047 TAP_TAPCELL_ROW_35_368
*1048 TAP_TAPCELL_ROW_35_369
*1049 TAP_TAPCELL_ROW_36_370
*1050 TAP_TAPCELL_ROW_36_371
*1051 TAP_TAPCELL_ROW_36_372
*1052 TAP_TAPCELL_ROW_36_373
*1053 TAP_TAPCELL_ROW_36_374
*1054 TAP_TAPCELL_ROW_36_375
*1055 TAP_TAPCELL_ROW_36_376
*1056 TAP_TAPCELL_ROW_36_377
*1057 TAP_TAPCELL_ROW_36_378
*1058 TAP_TAPCELL_ROW_36_379
*1059 TAP_TAPCELL_ROW_37_380
*1060 TAP_TAPCELL_ROW_37_381
*1061 TAP_TAPCELL_ROW_37_382
*1062 TAP_TAPCELL_ROW_37_383
*1063 TAP_TAPCELL_ROW_37_384
*1064 TAP_TAPCELL_ROW_37_385
*1065 TAP_TAPCELL_ROW_37_386
*1066 TAP_TAPCELL_ROW_37_387
*1067 TAP_TAPCELL_ROW_37_388
*1068 TAP_TAPCELL_ROW_37_389
*1069 TAP_TAPCELL_ROW_38_390
*1070 TAP_TAPCELL_ROW_38_391
*1071 TAP_TAPCELL_ROW_38_392
*1072 TAP_TAPCELL_ROW_38_393
*1073 TAP_TAPCELL_ROW_38_394
*1074 TAP_TAPCELL_ROW_38_395
*1075 TAP_TAPCELL_ROW_38_396
*1076 TAP_TAPCELL_ROW_38_397
*1077 TAP_TAPCELL_ROW_38_398
*1078 TAP_TAPCELL_ROW_38_399
*1079 TAP_TAPCELL_ROW_39_400
*1080 TAP_TAPCELL_ROW_39_401
*1081 TAP_TAPCELL_ROW_39_402
*1082 TAP_TAPCELL_ROW_39_403
*1083 TAP_TAPCELL_ROW_39_404
*1084 TAP_TAPCELL_ROW_39_405
*1085 TAP_TAPCELL_ROW_39_406
*1086 TAP_TAPCELL_ROW_39_407
*1087 TAP_TAPCELL_ROW_39_408
*1088 TAP_TAPCELL_ROW_39_409
*1089 TAP_TAPCELL_ROW_40_410
*1090 TAP_TAPCELL_ROW_40_411
*1091 TAP_TAPCELL_ROW_40_412
*1092 TAP_TAPCELL_ROW_40_413
*1093 TAP_TAPCELL_ROW_40_414
*1094 TAP_TAPCELL_ROW_40_415
*1095 TAP_TAPCELL_ROW_40_416
*1096 TAP_TAPCELL_ROW_40_417
*1097 TAP_TAPCELL_ROW_40_418
*1098 TAP_TAPCELL_ROW_40_419
*1099 TAP_TAPCELL_ROW_41_420
*1100 TAP_TAPCELL_ROW_41_421
*1101 TAP_TAPCELL_ROW_41_422
*1102 TAP_TAPCELL_ROW_41_423
*1103 TAP_TAPCELL_ROW_41_424
*1104 TAP_TAPCELL_ROW_41_425
*1105 TAP_TAPCELL_ROW_41_426
*1106 TAP_TAPCELL_ROW_41_427
*1107 TAP_TAPCELL_ROW_41_428
*1108 TAP_TAPCELL_ROW_41_429
*1109 TAP_TAPCELL_ROW_42_430
*1110 TAP_TAPCELL_ROW_42_431
*1111 TAP_TAPCELL_ROW_42_432
*1112 TAP_TAPCELL_ROW_42_433
*1113 TAP_TAPCELL_ROW_42_434
*1114 TAP_TAPCELL_ROW_42_435
*1115 TAP_TAPCELL_ROW_42_436
*1116 TAP_TAPCELL_ROW_42_437
*1117 TAP_TAPCELL_ROW_42_438
*1118 TAP_TAPCELL_ROW_42_439
*1119 TAP_TAPCELL_ROW_43_440
*1120 TAP_TAPCELL_ROW_43_441
*1121 TAP_TAPCELL_ROW_43_442
*1122 TAP_TAPCELL_ROW_43_443
*1123 TAP_TAPCELL_ROW_43_444
*1124 TAP_TAPCELL_ROW_43_445
*1125 TAP_TAPCELL_ROW_43_446
*1126 TAP_TAPCELL_ROW_43_447
*1127 TAP_TAPCELL_ROW_43_448
*1128 TAP_TAPCELL_ROW_43_449
*1129 TAP_TAPCELL_ROW_44_450
*1130 TAP_TAPCELL_ROW_44_451
*1131 TAP_TAPCELL_ROW_44_452
*1132 TAP_TAPCELL_ROW_44_453
*1133 TAP_TAPCELL_ROW_44_454
*1134 TAP_TAPCELL_ROW_44_455
*1135 TAP_TAPCELL_ROW_44_456
*1136 TAP_TAPCELL_ROW_44_457
*1137 TAP_TAPCELL_ROW_44_458
*1138 TAP_TAPCELL_ROW_44_459
*1139 TAP_TAPCELL_ROW_45_460
*1140 TAP_TAPCELL_ROW_45_461
*1141 TAP_TAPCELL_ROW_45_462
*1142 TAP_TAPCELL_ROW_45_463
*1143 TAP_TAPCELL_ROW_45_464
*1144 TAP_TAPCELL_ROW_45_465
*1145 TAP_TAPCELL_ROW_45_466
*1146 TAP_TAPCELL_ROW_45_467
*1147 TAP_TAPCELL_ROW_45_468
*1148 TAP_TAPCELL_ROW_45_469
*1149 TAP_TAPCELL_ROW_46_470
*1150 TAP_TAPCELL_ROW_46_471
*1151 TAP_TAPCELL_ROW_46_472
*1152 TAP_TAPCELL_ROW_46_473
*1153 TAP_TAPCELL_ROW_46_474
*1154 TAP_TAPCELL_ROW_46_475
*1155 TAP_TAPCELL_ROW_46_476
*1156 TAP_TAPCELL_ROW_46_477
*1157 TAP_TAPCELL_ROW_46_478
*1158 TAP_TAPCELL_ROW_46_479
*1159 TAP_TAPCELL_ROW_47_480
*1160 TAP_TAPCELL_ROW_47_481
*1161 TAP_TAPCELL_ROW_47_482
*1162 TAP_TAPCELL_ROW_47_483
*1163 TAP_TAPCELL_ROW_47_484
*1164 TAP_TAPCELL_ROW_47_485
*1165 TAP_TAPCELL_ROW_47_486
*1166 TAP_TAPCELL_ROW_47_487
*1167 TAP_TAPCELL_ROW_47_488
*1168 TAP_TAPCELL_ROW_47_489
*1169 TAP_TAPCELL_ROW_48_490
*1170 TAP_TAPCELL_ROW_48_491
*1171 TAP_TAPCELL_ROW_48_492
*1172 TAP_TAPCELL_ROW_48_493
*1173 TAP_TAPCELL_ROW_48_494
*1174 TAP_TAPCELL_ROW_48_495
*1175 TAP_TAPCELL_ROW_48_496
*1176 TAP_TAPCELL_ROW_48_497
*1177 TAP_TAPCELL_ROW_48_498
*1178 TAP_TAPCELL_ROW_48_499
*1179 TAP_TAPCELL_ROW_49_500
*1180 TAP_TAPCELL_ROW_49_501
*1181 TAP_TAPCELL_ROW_49_502
*1182 TAP_TAPCELL_ROW_49_503
*1183 TAP_TAPCELL_ROW_49_504
*1184 TAP_TAPCELL_ROW_49_505
*1185 TAP_TAPCELL_ROW_49_506
*1186 TAP_TAPCELL_ROW_49_507
*1187 TAP_TAPCELL_ROW_49_508
*1188 TAP_TAPCELL_ROW_49_509
*1189 TAP_TAPCELL_ROW_50_510
*1190 TAP_TAPCELL_ROW_50_511
*1191 TAP_TAPCELL_ROW_50_512
*1192 TAP_TAPCELL_ROW_50_513
*1193 TAP_TAPCELL_ROW_50_514
*1194 TAP_TAPCELL_ROW_50_515
*1195 TAP_TAPCELL_ROW_50_516
*1196 TAP_TAPCELL_ROW_50_517
*1197 TAP_TAPCELL_ROW_50_518
*1198 TAP_TAPCELL_ROW_50_519
*1199 TAP_TAPCELL_ROW_51_520
*1200 TAP_TAPCELL_ROW_51_521
*1201 TAP_TAPCELL_ROW_51_522
*1202 TAP_TAPCELL_ROW_51_523
*1203 TAP_TAPCELL_ROW_51_524
*1204 TAP_TAPCELL_ROW_51_525
*1205 TAP_TAPCELL_ROW_51_526
*1206 TAP_TAPCELL_ROW_51_527
*1207 TAP_TAPCELL_ROW_51_528
*1208 TAP_TAPCELL_ROW_51_529
*1209 TAP_TAPCELL_ROW_52_530
*1210 TAP_TAPCELL_ROW_52_531
*1211 TAP_TAPCELL_ROW_52_532
*1212 TAP_TAPCELL_ROW_52_533
*1213 TAP_TAPCELL_ROW_52_534
*1214 TAP_TAPCELL_ROW_52_535
*1215 TAP_TAPCELL_ROW_52_536
*1216 TAP_TAPCELL_ROW_52_537
*1217 TAP_TAPCELL_ROW_52_538
*1218 TAP_TAPCELL_ROW_52_539
*1219 TAP_TAPCELL_ROW_53_540
*1220 TAP_TAPCELL_ROW_53_541
*1221 TAP_TAPCELL_ROW_53_542
*1222 TAP_TAPCELL_ROW_53_543
*1223 TAP_TAPCELL_ROW_53_544
*1224 TAP_TAPCELL_ROW_53_545
*1225 TAP_TAPCELL_ROW_53_546
*1226 TAP_TAPCELL_ROW_53_547
*1227 TAP_TAPCELL_ROW_53_548
*1228 TAP_TAPCELL_ROW_53_549
*1229 TAP_TAPCELL_ROW_54_550
*1230 TAP_TAPCELL_ROW_54_551
*1231 TAP_TAPCELL_ROW_54_552
*1232 TAP_TAPCELL_ROW_54_553
*1233 TAP_TAPCELL_ROW_54_554
*1234 TAP_TAPCELL_ROW_54_555
*1235 TAP_TAPCELL_ROW_54_556
*1236 TAP_TAPCELL_ROW_54_557
*1237 TAP_TAPCELL_ROW_54_558
*1238 TAP_TAPCELL_ROW_54_559
*1239 TAP_TAPCELL_ROW_55_560
*1240 TAP_TAPCELL_ROW_55_561
*1241 TAP_TAPCELL_ROW_55_562
*1242 TAP_TAPCELL_ROW_55_563
*1243 TAP_TAPCELL_ROW_55_564
*1244 TAP_TAPCELL_ROW_55_565
*1245 TAP_TAPCELL_ROW_55_566
*1246 TAP_TAPCELL_ROW_55_567
*1247 TAP_TAPCELL_ROW_55_568
*1248 TAP_TAPCELL_ROW_55_569
*1249 TAP_TAPCELL_ROW_56_570
*1250 TAP_TAPCELL_ROW_56_571
*1251 TAP_TAPCELL_ROW_56_572
*1252 TAP_TAPCELL_ROW_56_573
*1253 TAP_TAPCELL_ROW_56_574
*1254 TAP_TAPCELL_ROW_56_575
*1255 TAP_TAPCELL_ROW_56_576
*1256 TAP_TAPCELL_ROW_56_577
*1257 TAP_TAPCELL_ROW_56_578
*1258 TAP_TAPCELL_ROW_56_579
*1259 TAP_TAPCELL_ROW_57_580
*1260 TAP_TAPCELL_ROW_57_581
*1261 TAP_TAPCELL_ROW_57_582
*1262 TAP_TAPCELL_ROW_57_583
*1263 TAP_TAPCELL_ROW_57_584
*1264 TAP_TAPCELL_ROW_57_585
*1265 TAP_TAPCELL_ROW_57_586
*1266 TAP_TAPCELL_ROW_57_587
*1267 TAP_TAPCELL_ROW_57_588
*1268 TAP_TAPCELL_ROW_57_589
*1269 TAP_TAPCELL_ROW_58_590
*1270 TAP_TAPCELL_ROW_58_591
*1271 TAP_TAPCELL_ROW_58_592
*1272 TAP_TAPCELL_ROW_58_593
*1273 TAP_TAPCELL_ROW_58_594
*1274 TAP_TAPCELL_ROW_58_595
*1275 TAP_TAPCELL_ROW_58_596
*1276 TAP_TAPCELL_ROW_58_597
*1277 TAP_TAPCELL_ROW_58_598
*1278 TAP_TAPCELL_ROW_58_599
*1279 TAP_TAPCELL_ROW_59_600
*1280 TAP_TAPCELL_ROW_59_601
*1281 TAP_TAPCELL_ROW_59_602
*1282 TAP_TAPCELL_ROW_59_603
*1283 TAP_TAPCELL_ROW_59_604
*1284 TAP_TAPCELL_ROW_59_605
*1285 TAP_TAPCELL_ROW_59_606
*1286 TAP_TAPCELL_ROW_59_607
*1287 TAP_TAPCELL_ROW_59_608
*1288 TAP_TAPCELL_ROW_59_609
*1289 TAP_TAPCELL_ROW_60_610
*1290 TAP_TAPCELL_ROW_60_611
*1291 TAP_TAPCELL_ROW_60_612
*1292 TAP_TAPCELL_ROW_60_613
*1293 TAP_TAPCELL_ROW_60_614
*1294 TAP_TAPCELL_ROW_60_615
*1295 TAP_TAPCELL_ROW_60_616
*1296 TAP_TAPCELL_ROW_60_617
*1297 TAP_TAPCELL_ROW_60_618
*1298 TAP_TAPCELL_ROW_60_619
*1299 TAP_TAPCELL_ROW_61_620
*1300 TAP_TAPCELL_ROW_61_621
*1301 TAP_TAPCELL_ROW_61_622
*1302 TAP_TAPCELL_ROW_61_623
*1303 TAP_TAPCELL_ROW_61_624
*1304 TAP_TAPCELL_ROW_61_625
*1305 TAP_TAPCELL_ROW_61_626
*1306 TAP_TAPCELL_ROW_61_627
*1307 TAP_TAPCELL_ROW_61_628
*1308 TAP_TAPCELL_ROW_61_629
*1309 TAP_TAPCELL_ROW_62_630
*1310 TAP_TAPCELL_ROW_62_631
*1311 TAP_TAPCELL_ROW_62_632
*1312 TAP_TAPCELL_ROW_62_633
*1313 TAP_TAPCELL_ROW_62_634
*1314 TAP_TAPCELL_ROW_62_635
*1315 TAP_TAPCELL_ROW_62_636
*1316 TAP_TAPCELL_ROW_62_637
*1317 TAP_TAPCELL_ROW_62_638
*1318 TAP_TAPCELL_ROW_62_639
*1319 TAP_TAPCELL_ROW_63_640
*1320 TAP_TAPCELL_ROW_63_641
*1321 TAP_TAPCELL_ROW_63_642
*1322 TAP_TAPCELL_ROW_63_643
*1323 TAP_TAPCELL_ROW_63_644
*1324 TAP_TAPCELL_ROW_63_645
*1325 TAP_TAPCELL_ROW_63_646
*1326 TAP_TAPCELL_ROW_63_647
*1327 TAP_TAPCELL_ROW_63_648
*1328 TAP_TAPCELL_ROW_63_649
*1329 TAP_TAPCELL_ROW_64_650
*1330 TAP_TAPCELL_ROW_64_651
*1331 TAP_TAPCELL_ROW_64_652
*1332 TAP_TAPCELL_ROW_64_653
*1333 TAP_TAPCELL_ROW_64_654
*1334 TAP_TAPCELL_ROW_64_655
*1335 TAP_TAPCELL_ROW_64_656
*1336 TAP_TAPCELL_ROW_64_657
*1337 TAP_TAPCELL_ROW_64_658
*1338 TAP_TAPCELL_ROW_64_659
*1339 TAP_TAPCELL_ROW_65_660
*1340 TAP_TAPCELL_ROW_65_661
*1341 TAP_TAPCELL_ROW_65_662
*1342 TAP_TAPCELL_ROW_65_663
*1343 TAP_TAPCELL_ROW_65_664
*1344 TAP_TAPCELL_ROW_65_665
*1345 TAP_TAPCELL_ROW_65_666
*1346 TAP_TAPCELL_ROW_65_667
*1347 TAP_TAPCELL_ROW_65_668
*1348 TAP_TAPCELL_ROW_65_669
*1349 TAP_TAPCELL_ROW_66_670
*1350 TAP_TAPCELL_ROW_66_671
*1351 TAP_TAPCELL_ROW_66_672
*1352 TAP_TAPCELL_ROW_66_673
*1353 TAP_TAPCELL_ROW_66_674
*1354 TAP_TAPCELL_ROW_66_675
*1355 TAP_TAPCELL_ROW_66_676
*1356 TAP_TAPCELL_ROW_66_677
*1357 TAP_TAPCELL_ROW_66_678
*1358 TAP_TAPCELL_ROW_66_679
*1359 TAP_TAPCELL_ROW_67_680
*1360 TAP_TAPCELL_ROW_67_681
*1361 TAP_TAPCELL_ROW_67_682
*1362 TAP_TAPCELL_ROW_67_683
*1363 TAP_TAPCELL_ROW_67_684
*1364 TAP_TAPCELL_ROW_67_685
*1365 TAP_TAPCELL_ROW_67_686
*1366 TAP_TAPCELL_ROW_67_687
*1367 TAP_TAPCELL_ROW_67_688
*1368 TAP_TAPCELL_ROW_67_689
*1369 TAP_TAPCELL_ROW_68_690
*1370 TAP_TAPCELL_ROW_68_691
*1371 TAP_TAPCELL_ROW_68_692
*1372 TAP_TAPCELL_ROW_68_693
*1373 TAP_TAPCELL_ROW_68_694
*1374 TAP_TAPCELL_ROW_68_695
*1375 TAP_TAPCELL_ROW_68_696
*1376 TAP_TAPCELL_ROW_68_697
*1377 TAP_TAPCELL_ROW_68_698
*1378 TAP_TAPCELL_ROW_68_699
*1379 TAP_TAPCELL_ROW_69_700
*1380 TAP_TAPCELL_ROW_69_701
*1381 TAP_TAPCELL_ROW_69_702
*1382 TAP_TAPCELL_ROW_69_703
*1383 TAP_TAPCELL_ROW_69_704
*1384 TAP_TAPCELL_ROW_69_705
*1385 TAP_TAPCELL_ROW_69_706
*1386 TAP_TAPCELL_ROW_69_707
*1387 TAP_TAPCELL_ROW_69_708
*1388 TAP_TAPCELL_ROW_69_709
*1389 TAP_TAPCELL_ROW_70_710
*1390 TAP_TAPCELL_ROW_70_711
*1391 TAP_TAPCELL_ROW_70_712
*1392 TAP_TAPCELL_ROW_70_713
*1393 TAP_TAPCELL_ROW_70_714
*1394 TAP_TAPCELL_ROW_70_715
*1395 TAP_TAPCELL_ROW_70_716
*1396 TAP_TAPCELL_ROW_70_717
*1397 TAP_TAPCELL_ROW_70_718
*1398 TAP_TAPCELL_ROW_70_719
*1399 TAP_TAPCELL_ROW_71_720
*1400 TAP_TAPCELL_ROW_71_721
*1401 TAP_TAPCELL_ROW_71_722
*1402 TAP_TAPCELL_ROW_71_723
*1403 TAP_TAPCELL_ROW_71_724
*1404 TAP_TAPCELL_ROW_71_725
*1405 TAP_TAPCELL_ROW_71_726
*1406 TAP_TAPCELL_ROW_71_727
*1407 TAP_TAPCELL_ROW_71_728
*1408 TAP_TAPCELL_ROW_71_729
*1409 TAP_TAPCELL_ROW_72_730
*1410 TAP_TAPCELL_ROW_72_731
*1411 TAP_TAPCELL_ROW_72_732
*1412 TAP_TAPCELL_ROW_72_733
*1413 TAP_TAPCELL_ROW_72_734
*1414 TAP_TAPCELL_ROW_72_735
*1415 TAP_TAPCELL_ROW_72_736
*1416 TAP_TAPCELL_ROW_72_737
*1417 TAP_TAPCELL_ROW_72_738
*1418 TAP_TAPCELL_ROW_72_739
*1419 TAP_TAPCELL_ROW_73_740
*1420 TAP_TAPCELL_ROW_73_741
*1421 TAP_TAPCELL_ROW_73_742
*1422 TAP_TAPCELL_ROW_73_743
*1423 TAP_TAPCELL_ROW_73_744
*1424 TAP_TAPCELL_ROW_73_745
*1425 TAP_TAPCELL_ROW_73_746
*1426 TAP_TAPCELL_ROW_73_747
*1427 TAP_TAPCELL_ROW_73_748
*1428 TAP_TAPCELL_ROW_73_749
*1429 TAP_TAPCELL_ROW_74_750
*1430 TAP_TAPCELL_ROW_74_751
*1431 TAP_TAPCELL_ROW_74_752
*1432 TAP_TAPCELL_ROW_74_753
*1433 TAP_TAPCELL_ROW_74_754
*1434 TAP_TAPCELL_ROW_74_755