$ CDL Netlist generated by OpenROAD

*.BUSDELIMITER [

.SUBCKT gcd clk req_msg[31] req_msg[30] req_msg[29] req_msg[28]
+ req_msg[27] req_msg[26] req_msg[25] req_msg[24] req_msg[23]
+ req_msg[22] req_msg[21] req_msg[20] req_msg[19] req_msg[18]
+ req_msg[17] req_msg[16] req_msg[15] req_msg[14] req_msg[13]
+ req_msg[12] req_msg[11] req_msg[10] req_msg[9] req_msg[8]
+ req_msg[7] req_msg[6] req_msg[5] req_msg[4] req_msg[3] req_msg[2]
+ req_msg[1] req_msg[0] req_rdy req_val reset resp_msg[15] resp_msg[14]
+ resp_msg[13] resp_msg[12] resp_msg[11] resp_msg[10] resp_msg[9]
+ resp_msg[8] resp_msg[7] resp_msg[6] resp_msg[5] resp_msg[4]
+ resp_msg[3] resp_msg[2] resp_msg[1] resp_msg[0] resp_rdy resp_val
X_297_ ctrl.state.out[2] _054_ VDD VSS INV_X1
X_298_ _054_ ctrl.state.out[1] _005_ resp_val VDD VSS AND3_X1
X_299_ dpath.a_lt_b$in0[0] dpath.a_lt_b$in1[0] resp_msg[0]
+ VDD VSS XOR2_X1
X_300_ dpath.a_lt_b$in1[7] dpath.a_lt_b$in1[6] dpath.a_lt_b$in1[5]
+ dpath.a_lt_b$in1[4] _055_ VDD VSS NOR4_X1
X_301_ dpath.a_lt_b$in1[3] _056_ VDD VSS INV_X1
X_302_ dpath.a_lt_b$in1[2] _057_ VDD VSS INV_X4
X_303_ dpath.a_lt_b$in1[1] dpath.a_lt_b$in1[0] _058_ VDD VSS
+ NOR2_X1
X_304_ _055_ _056_ _057_ _058_ _059_ VDD VSS NAND4_X1
X_305_ dpath.a_lt_b$in1[11] dpath.a_lt_b$in1[10] dpath.a_lt_b$in1[9]
+ dpath.a_lt_b$in1[8] _060_ VDD VSS NOR4_X1
X_306_ dpath.a_lt_b$in1[15] dpath.a_lt_b$in1[14] dpath.a_lt_b$in1[13]
+ dpath.a_lt_b$in1[12] _061_ VDD VSS NOR4_X1
X_307_ _060_ _061_ _062_ VDD VSS NAND2_X1
X_308_ _059_ _062_ _063_ VDD VSS NOR2_X1
X_309_ reset _064_ VDD VSS INV_X1
X_310_ _004_ _065_ VDD VSS INV_X1
X_311_ _063_ _064_ _065_ _066_ VDD VSS NAND3_X1
X_312_ resp_val resp_rdy _067_ VDD VSS AND2_X1
X_313_ _067_ reset _003_ _068_ VDD VSS OR3_X1
X_314_ _066_ _068_ _001_ VDD VSS NAND2_X1
X_315_ _064_ _065_ _059_ _062_ _069_ VDD VSS OAI211_X1
X_316_ _005_ _070_ VDD VSS INV_X2
X_317_ _070_ _071_ VDD VSS BUF_X4
X_318_ req_rdy _072_ VDD VSS BUF_X4
X_319_ _064_ _071_ _072_ req_val _073_ VDD VSS NAND4_X1
X_320_ _069_ _073_ _002_ VDD VSS NAND2_X1
X_321_ resp_val _064_ resp_rdy _074_ VDD VSS NAND3_X1
X_322_ _074_ _003_ _075_ VDD VSS NOR2_X1
X_323_ reset _005_ _072_ req_val _076_ VDD VSS AOI211_X1
X_324_ _075_ reset _076_ _000_ VDD VSS OR3_X1
X_325_ _054_ _077_ VDD VSS BUF_X4
X_326_ req_msg[16] _077_ _071_ _078_ VDD VSS OAI21_X1
X_327_ dpath.a_lt_b$in0[15] _079_ VDD VSS INV_X1
X_328_ _079_ dpath.a_lt_b$in1[15] _080_ VDD VSS NAND2_X1
X_329_ dpath.a_lt_b$in0[7] dpath.a_lt_b$in1[7] _081_ VDD VSS
+ XNOR2_X2
X_330_ dpath.a_lt_b$in0[6] dpath.a_lt_b$in1[6] _082_ VDD VSS
+ XNOR2_X2
X_331_ _081_ _082_ _083_ VDD VSS AND2_X4
X_332_ dpath.a_lt_b$in0[3] dpath.a_lt_b$in1[3] _084_ VDD VSS
+ XNOR2_X2
X_333_ dpath.a_lt_b$in0[2] dpath.a_lt_b$in1[2] _085_ VDD VSS
+ XNOR2_X2
X_334_ _084_ _085_ _086_ VDD VSS AND2_X2
X_335_ dpath.a_lt_b$in0[5] dpath.a_lt_b$in1[5] _087_ VDD VSS
+ XNOR2_X2
X_336_ dpath.a_lt_b$in0[4] dpath.a_lt_b$in1[4] _088_ VDD VSS
+ XNOR2_X2
X_337_ _087_ _088_ _089_ VDD VSS AND2_X4
X_338_ _083_ _086_ _089_ _090_ VDD VSS NAND3_X2
X_339_ dpath.a_lt_b$in1[1] _091_ VDD VSS INV_X16
X_340_ _091_ dpath.a_lt_b$in0[1] _092_ VDD VSS AND2_X4
X_341_ _091_ dpath.a_lt_b$in0[1] _093_ VDD VSS NOR2_X1
X_342_ dpath.a_lt_b$in0[0] _094_ VDD VSS INV_X1
X_343_ _093_ _094_ dpath.a_lt_b$in1[0] _095_ VDD VSS NOR3_X1
X_344_ _090_ _092_ _095_ _096_ VDD VSS OR3_X4
X_345_ dpath.a_lt_b$in0[4] _097_ VDD VSS INV_X2
X_346_ _087_ _097_ dpath.a_lt_b$in1[4] _098_ VDD VSS AND3_X1
X_347_ dpath.a_lt_b$in0[5] _099_ VDD VSS INV_X1
X_348_ _099_ dpath.a_lt_b$in1[5] _100_ VDD VSS AND2_X1
X_349_ _083_ _098_ _100_ _101_ VDD VSS OAI21_X1
X_350_ dpath.a_lt_b$in1[7] _102_ VDD VSS INV_X1
X_351_ _102_ dpath.a_lt_b$in0[7] _103_ VDD VSS NOR2_X1
X_352_ _103_ _104_ VDD VSS INV_X1
X_353_ dpath.a_lt_b$in0[6] _105_ VDD VSS INV_X16
X_354_ _081_ _105_ dpath.a_lt_b$in1[6] _106_ VDD VSS NAND3_X1
X_355_ _101_ _104_ _106_ _107_ VDD VSS AND3_X1
X_356_ _056_ dpath.a_lt_b$in0[3] _108_ VDD VSS NOR2_X1
X_357_ dpath.a_lt_b$in0[2] _057_ dpath.a_lt_b$in0[3] _056_
+ _109_ VDD VSS AOI211_X1
X_358_ _083_ _089_ _108_ _109_ _110_ VDD VSS OAI211_X1
X_359_ _096_ _107_ _110_ _111_ VDD VSS NAND3_X1
X_360_ dpath.a_lt_b$in0[10] dpath.a_lt_b$in1[10] _112_ VDD
+ VSS XNOR2_X2
X_361_ dpath.a_lt_b$in0[11] dpath.a_lt_b$in1[11] _113_ VDD
+ VSS XNOR2_X2
X_362_ _112_ _113_ _114_ VDD VSS AND2_X4
X_363_ dpath.a_lt_b$in0[9] dpath.a_lt_b$in1[9] _115_ VDD VSS
+ XNOR2_X2
X_364_ dpath.a_lt_b$in0[8] dpath.a_lt_b$in1[8] _116_ VDD VSS
+ XNOR2_X1
X_365_ _114_ _115_ _116_ _117_ VDD VSS AND3_X4
X_366_ dpath.a_lt_b$in0[14] dpath.a_lt_b$in1[14] _118_ VDD
+ VSS XNOR2_X1
X_367_ dpath.a_lt_b$in0[15] dpath.a_lt_b$in1[15] _119_ VDD
+ VSS XNOR2_X2
X_368_ _118_ _119_ _120_ VDD VSS NAND2_X1
X_369_ dpath.a_lt_b$in0[13] dpath.a_lt_b$in1[13] _121_ VDD
+ VSS XNOR2_X2
X_370_ _121_ _122_ VDD VSS INV_X1
X_371_ dpath.a_lt_b$in0[12] dpath.a_lt_b$in1[12] _123_ VDD
+ VSS XNOR2_X2
X_372_ _123_ _124_ VDD VSS INV_X2
X_373_ _120_ _122_ _124_ _125_ VDD VSS NOR3_X1
X_374_ _117_ _125_ _126_ VDD VSS AND2_X1
X_375_ _111_ _126_ _127_ VDD VSS NAND2_X1
X_376_ dpath.a_lt_b$in0[8] _128_ VDD VSS INV_X1
X_377_ _115_ _128_ dpath.a_lt_b$in1[8] _129_ VDD VSS AND3_X1
X_378_ dpath.a_lt_b$in0[9] _130_ VDD VSS INV_X1
X_379_ _130_ dpath.a_lt_b$in1[9] _131_ VDD VSS AND2_X1
X_380_ _114_ _129_ _131_ _132_ VDD VSS OAI21_X1
X_381_ dpath.a_lt_b$in0[11] _133_ VDD VSS INV_X1
X_382_ _133_ dpath.a_lt_b$in1[11] _134_ VDD VSS NOR2_X1
X_383_ dpath.a_lt_b$in0[10] _135_ VDD VSS INV_X1
X_384_ _133_ dpath.a_lt_b$in1[11] _135_ dpath.a_lt_b$in1[10]
+ _136_ VDD VSS AOI22_X1
X_385_ _132_ _134_ _136_ _137_ VDD VSS OAI21_X1
X_386_ _137_ _125_ _138_ VDD VSS NAND2_X1
X_387_ dpath.a_lt_b$in0[14] _139_ VDD VSS INV_X1
X_388_ _119_ _139_ dpath.a_lt_b$in1[14] _140_ VDD VSS NAND3_X1
X_389_ _080_ _127_ _138_ _140_ _141_ VDD VSS AND4_X4
X_390_ ctrl.state.out[2] _005_ _142_ VDD VSS AND2_X1
X_391_ dpath.a_lt_b$in0[13] _143_ VDD VSS INV_X1
X_392_ _143_ dpath.a_lt_b$in1[13] _144_ VDD VSS NOR2_X1
X_393_ dpath.a_lt_b$in0[12] _145_ VDD VSS INV_X1
X_394_ _143_ dpath.a_lt_b$in1[13] _145_ dpath.a_lt_b$in1[12]
+ _146_ VDD VSS AOI22_X1
X_395_ _120_ _144_ _146_ _147_ VDD VSS OR3_X1
X_396_ _141_ resp_msg[0] _142_ _147_ _148_ VDD VSS NAND4_X1
X_397_ _083_ _089_ _149_ VDD VSS AND2_X2
X_398_ _117_ _149_ _125_ _086_ _150_ VDD VSS NAND4_X1
X_399_ dpath.a_lt_b$in0[1] dpath.a_lt_b$in1[1] _151_ VDD VSS
+ XNOR2_X2
X_400_ _151_ _152_ VDD VSS INV_X1
X_401_ _150_ resp_msg[0] _152_ _153_ VDD VSS NOR3_X4
X_402_ _153_ _141_ _147_ _154_ VDD VSS AOI21_X4
X_403_ _154_ ctrl.state.out[2] _155_ VDD VSS NAND2_X4
X_404_ _155_ _070_ _156_ VDD VSS OR2_X4
X_405_ _156_ _157_ VDD VSS BUF_X8
X_406_ _078_ _148_ _157_ _006_ _158_ VDD VSS OAI211_X2
X_407_ ctrl.state.out[2] req_rdy _159_ VDD VSS OR2_X1
X_408_ _159_ _160_ VDD VSS BUF_X4
X_409_ _160_ _161_ VDD VSS BUF_X4
X_410_ dpath.a_lt_b$in0[0] _158_ _161_ _022_ VDD VSS MUX2_X1
X_411_ req_msg[17] _077_ _071_ _162_ VDD VSS OAI21_X1
X_412_ _142_ _163_ VDD VSS INV_X1
X_413_ _154_ _163_ _164_ VDD VSS NOR2_X4
X_414_ _164_ _165_ VDD VSS BUF_X8
X_415_ _094_ dpath.a_lt_b$in1[0] _166_ VDD VSS NAND2_X2
X_416_ _151_ _166_ resp_msg[1] VDD VSS XOR2_X1
X_417_ _165_ resp_msg[1] _167_ VDD VSS NAND2_X2
X_418_ _162_ _167_ _157_ _007_ _168_ VDD VSS OAI211_X1
X_419_ dpath.a_lt_b$in0[1] _168_ _161_ _029_ VDD VSS MUX2_X1
X_420_ req_msg[18] _077_ _071_ _169_ VDD VSS OAI21_X1
X_421_ _092_ _151_ _166_ _170_ VDD VSS AOI21_X4
X_422_ _170_ _085_ resp_msg[2] VDD VSS XNOR2_X1
X_423_ _165_ resp_msg[2] _171_ VDD VSS NAND2_X2
X_424_ _169_ _171_ _157_ _008_ _172_ VDD VSS OAI211_X1
X_425_ dpath.a_lt_b$in0[2] _172_ _161_ _030_ VDD VSS MUX2_X1
X_426_ req_msg[19] _077_ _071_ _173_ VDD VSS OAI21_X1
X_427_ _170_ _174_ VDD VSS INV_X4
X_428_ _174_ _085_ _175_ VDD VSS AND2_X1
X_429_ _057_ dpath.a_lt_b$in0[2] _176_ VDD VSS AND2_X4
X_430_ _175_ _176_ _177_ VDD VSS NOR2_X1
X_431_ _177_ _084_ resp_msg[3] VDD VSS XNOR2_X1
X_432_ _165_ resp_msg[3] _178_ VDD VSS NAND2_X2
X_433_ _173_ _178_ _157_ _009_ _179_ VDD VSS OAI211_X1
X_434_ dpath.a_lt_b$in0[3] _179_ _161_ _031_ VDD VSS MUX2_X1
X_435_ req_msg[20] _077_ _071_ _180_ VDD VSS OAI21_X1
X_436_ _084_ _176_ _181_ VDD VSS AND2_X2
X_437_ _181_ dpath.a_lt_b$in0[3] _056_ _182_ VDD VSS AOI21_X4
X_438_ _174_ _086_ _183_ VDD VSS NAND2_X2
X_439_ _182_ _183_ _184_ VDD VSS NAND2_X4
X_440_ _184_ _088_ resp_msg[4] VDD VSS XOR2_X1
X_441_ _165_ resp_msg[4] _185_ VDD VSS NAND2_X2
X_442_ _180_ _185_ _157_ _010_ _186_ VDD VSS OAI211_X1
X_443_ dpath.a_lt_b$in0[4] _186_ _161_ _032_ VDD VSS MUX2_X1
X_444_ req_msg[21] _077_ _071_ _187_ VDD VSS OAI21_X1
X_445_ _184_ _088_ _188_ VDD VSS AND2_X1
X_446_ _097_ dpath.a_lt_b$in1[4] _189_ VDD VSS NOR2_X1
X_447_ _188_ _087_ _189_ _190_ VDD VSS NOR3_X1
X_448_ _190_ _087_ _189_ _089_ _184_ resp_msg[5] VDD VSS AOI221_X4
X_449_ _165_ resp_msg[5] _191_ VDD VSS NAND2_X2
X_450_ _187_ _191_ _157_ _011_ _192_ VDD VSS OAI211_X1
X_451_ dpath.a_lt_b$in0[5] _192_ _161_ _033_ VDD VSS MUX2_X1
X_452_ req_msg[22] _077_ _071_ _193_ VDD VSS OAI21_X1
X_453_ _087_ _189_ _194_ VDD VSS NAND2_X1
X_454_ _194_ _099_ dpath.a_lt_b$in1[5] _195_ VDD VSS OAI21_X1
X_455_ _195_ _184_ _089_ _196_ VDD VSS AOI21_X1
X_456_ _196_ _082_ resp_msg[6] VDD VSS XNOR2_X1
X_457_ _165_ resp_msg[6] _197_ VDD VSS NAND2_X2
X_458_ _193_ _197_ _157_ _012_ _198_ VDD VSS OAI211_X1
X_459_ dpath.a_lt_b$in0[6] _198_ _160_ _034_ VDD VSS MUX2_X1
X_460_ req_msg[23] _077_ _070_ _199_ VDD VSS OAI21_X1
X_461_ _105_ dpath.a_lt_b$in1[6] _200_ VDD VSS AND2_X1
X_462_ _105_ dpath.a_lt_b$in1[6] _201_ VDD VSS NOR2_X4
X_463_ _196_ _200_ _201_ _202_ VDD VSS NOR3_X1
X_464_ _202_ _201_ _203_ VDD VSS NOR2_X1
X_465_ _203_ _081_ resp_msg[7] VDD VSS XNOR2_X1
X_466_ _165_ resp_msg[7] _204_ VDD VSS NAND2_X2
X_467_ _199_ _204_ _157_ _013_ _205_ VDD VSS OAI211_X1
X_468_ dpath.a_lt_b$in0[7] _205_ _160_ _035_ VDD VSS MUX2_X1
X_469_ req_msg[24] _054_ _070_ _206_ VDD VSS OAI21_X1
X_470_ _184_ _149_ _207_ VDD VSS NAND2_X2
X_471_ _081_ _201_ _208_ VDD VSS AND2_X2
X_472_ _208_ dpath.a_lt_b$in0[7] _102_ _195_ _083_ _209_ VDD
+ VSS AOI221_X2
X_473_ _207_ _209_ _210_ VDD VSS NAND2_X2
X_474_ _210_ _116_ resp_msg[8] VDD VSS XOR2_X1
X_475_ _165_ resp_msg[8] _211_ VDD VSS NAND2_X2
X_476_ _206_ _211_ _156_ _014_ _212_ VDD VSS OAI211_X1
X_477_ dpath.a_lt_b$in0[8] _212_ _160_ _036_ VDD VSS MUX2_X1
X_478_ req_msg[25] _054_ _070_ _213_ VDD VSS OAI21_X1
X_479_ _210_ _115_ _116_ _214_ VDD VSS AND3_X1
X_480_ _210_ _116_ _215_ VDD VSS AND2_X1
X_481_ _128_ dpath.a_lt_b$in1[8] _216_ VDD VSS NOR2_X1
X_482_ _215_ _115_ _216_ _217_ VDD VSS NOR3_X1
X_483_ _214_ _217_ _115_ _216_ resp_msg[9] VDD VSS AOI211_X1
X_484_ resp_msg[9] _164_ _218_ VDD VSS NAND2_X1
X_485_ _213_ _218_ _156_ _015_ _219_ VDD VSS OAI211_X1
X_486_ dpath.a_lt_b$in0[9] _219_ _160_ _037_ VDD VSS MUX2_X1
X_487_ req_msg[26] _054_ _070_ _220_ VDD VSS OAI21_X1
X_488_ _130_ dpath.a_lt_b$in1[9] _221_ VDD VSS NOR2_X1
X_489_ _221_ _115_ _216_ _222_ VDD VSS AOI21_X1
X_490_ _222_ _223_ VDD VSS INV_X1
X_491_ _214_ _223_ _224_ VDD VSS NOR2_X1
X_492_ _224_ _112_ resp_msg[10] VDD VSS XNOR2_X1
X_493_ _164_ resp_msg[10] _225_ VDD VSS NAND2_X1
X_494_ _220_ _225_ _156_ _016_ _226_ VDD VSS OAI211_X1
X_495_ dpath.a_lt_b$in0[10] _226_ _160_ _023_ VDD VSS MUX2_X1
X_496_ req_msg[27] _077_ _071_ _227_ VDD VSS OAI21_X1
X_497_ _227_ _157_ _017_ _228_ VDD VSS OAI21_X2
X_498_ _112_ _214_ _223_ _229_ VDD VSS OAI21_X1
X_499_ _135_ dpath.a_lt_b$in1[10] _230_ VDD VSS NOR2_X1
X_500_ _230_ _231_ VDD VSS INV_X1
X_501_ _229_ _231_ _232_ VDD VSS AND2_X1
X_502_ _232_ _113_ resp_msg[11] VDD VSS XNOR2_X1
X_503_ resp_msg[11] _165_ _233_ VDD VSS AND2_X2
X_504_ _161_ _228_ _233_ _234_ VDD VSS OAI21_X1
X_505_ _234_ _133_ _161_ _024_ VDD VSS OAI21_X1
X_506_ _210_ _117_ _235_ VDD VSS AND2_X2
X_507_ _235_ _236_ VDD VSS INV_X2
X_508_ _223_ _114_ _237_ VDD VSS NAND2_X1
X_509_ _134_ _113_ _230_ _238_ VDD VSS AOI21_X1
X_510_ _236_ _237_ _238_ _239_ VDD VSS AND3_X4
X_511_ _239_ _123_ resp_msg[12] VDD VSS XNOR2_X1
X_512_ resp_msg[12] _164_ _240_ VDD VSS NAND2_X1
X_513_ req_msg[28] _054_ _070_ _241_ VDD VSS OAI21_X1
X_514_ _240_ _241_ _156_ _018_ _242_ VDD VSS OAI211_X1
X_515_ dpath.a_lt_b$in0[12] _242_ _160_ _025_ VDD VSS MUX2_X1
X_516_ _239_ _124_ _243_ VDD VSS NOR2_X2
X_517_ _145_ dpath.a_lt_b$in1[12] _244_ VDD VSS NOR2_X1
X_518_ _243_ _244_ _245_ VDD VSS NOR2_X2
X_519_ _245_ _121_ resp_msg[13] VDD VSS XNOR2_X1
X_520_ resp_msg[13] _164_ _246_ VDD VSS NAND2_X1
X_521_ req_msg[29] _054_ _070_ _247_ VDD VSS OAI21_X1
X_522_ _246_ _247_ _019_ _156_ _248_ VDD VSS OAI211_X1
X_523_ dpath.a_lt_b$in0[13] _248_ _160_ _026_ VDD VSS MUX2_X1
X_524_ _239_ _122_ _124_ _249_ VDD VSS OR3_X4
X_525_ _118_ _250_ VDD VSS INV_X1
X_526_ _121_ _244_ dpath.a_lt_b$in0[13] _019_ _251_ VDD VSS
+ AOI22_X1
X_527_ _249_ _250_ _251_ _252_ VDD VSS AND3_X1
X_528_ _250_ _249_ _251_ _253_ VDD VSS AOI21_X4
X_529_ _252_ _253_ resp_msg[14] VDD VSS NOR2_X1
X_530_ resp_msg[14] _164_ _254_ VDD VSS NAND2_X1
X_531_ req_msg[30] _054_ _070_ _255_ VDD VSS OAI21_X1
X_532_ _254_ _255_ _020_ _156_ _256_ VDD VSS OAI211_X1
X_533_ dpath.a_lt_b$in0[14] _256_ _160_ _027_ VDD VSS MUX2_X1
X_534_ _139_ dpath.a_lt_b$in1[14] _257_ VDD VSS NOR2_X1
X_535_ _253_ _257_ _258_ VDD VSS NOR2_X2
X_536_ _258_ _119_ resp_msg[15] VDD VSS XNOR2_X1
X_537_ resp_msg[15] _165_ _259_ VDD VSS AND2_X2
X_538_ req_msg[31] _077_ _071_ _260_ VDD VSS OAI21_X1
X_539_ _260_ _157_ _021_ _261_ VDD VSS OAI21_X2
X_540_ _161_ _259_ _261_ _262_ VDD VSS OAI21_X1
X_541_ _262_ _079_ _161_ _028_ VDD VSS OAI21_X1
X_542_ dpath.a_lt_b$in0[0] req_msg[0] _072_ _263_ VDD VSS
+ MUX2_X1
X_543_ _155_ _005_ _264_ VDD VSS NAND2_X4
X_544_ _264_ _265_ VDD VSS BUF_X4
X_545_ dpath.a_lt_b$in1[0] _263_ _265_ _038_ VDD VSS MUX2_X1
X_546_ dpath.a_lt_b$in0[1] req_msg[1] _072_ _266_ VDD VSS
+ MUX2_X1
X_547_ dpath.a_lt_b$in1[1] _266_ _265_ _045_ VDD VSS MUX2_X1
X_548_ dpath.a_lt_b$in0[2] req_msg[2] _072_ _267_ VDD VSS
+ MUX2_X1
X_549_ dpath.a_lt_b$in1[2] _267_ _265_ _046_ VDD VSS MUX2_X1
X_550_ dpath.a_lt_b$in0[3] req_msg[3] _072_ _268_ VDD VSS
+ MUX2_X1
X_551_ dpath.a_lt_b$in1[3] _268_ _265_ _047_ VDD VSS MUX2_X1
X_552_ dpath.a_lt_b$in0[4] req_msg[4] _072_ _269_ VDD VSS
+ MUX2_X1
X_553_ dpath.a_lt_b$in1[4] _269_ _265_ _048_ VDD VSS MUX2_X1
X_554_ dpath.a_lt_b$in0[5] req_msg[5] _072_ _270_ VDD VSS
+ MUX2_X1
X_555_ dpath.a_lt_b$in1[5] _270_ _265_ _049_ VDD VSS MUX2_X1
X_556_ dpath.a_lt_b$in0[6] req_msg[6] _072_ _271_ VDD VSS
+ MUX2_X1
X_557_ dpath.a_lt_b$in1[6] _271_ _265_ _050_ VDD VSS MUX2_X1
X_558_ dpath.a_lt_b$in0[7] req_msg[7] _072_ _272_ VDD VSS
+ MUX2_X1
X_559_ dpath.a_lt_b$in1[7] _272_ _265_ _051_ VDD VSS MUX2_X1
X_560_ dpath.a_lt_b$in0[8] req_msg[8] req_rdy _273_ VDD VSS
+ MUX2_X1
X_561_ dpath.a_lt_b$in1[8] _273_ _265_ _052_ VDD VSS MUX2_X1
X_562_ dpath.a_lt_b$in0[9] req_msg[9] req_rdy _274_ VDD VSS
+ MUX2_X1
X_563_ dpath.a_lt_b$in1[9] _274_ _265_ _053_ VDD VSS MUX2_X1
X_564_ dpath.a_lt_b$in0[10] req_msg[10] req_rdy _275_ VDD
+ VSS MUX2_X1
X_565_ dpath.a_lt_b$in1[10] _275_ _264_ _039_ VDD VSS MUX2_X1
X_566_ dpath.a_lt_b$in0[11] req_msg[11] req_rdy _276_ VDD
+ VSS MUX2_X1
X_567_ dpath.a_lt_b$in1[11] _276_ _264_ _040_ VDD VSS MUX2_X1
X_568_ dpath.a_lt_b$in0[12] req_msg[12] req_rdy _277_ VDD
+ VSS MUX2_X1
X_569_ dpath.a_lt_b$in1[12] _277_ _264_ _041_ VDD VSS MUX2_X1
X_570_ dpath.a_lt_b$in0[13] req_msg[13] req_rdy _278_ VDD
+ VSS MUX2_X1
X_571_ dpath.a_lt_b$in1[13] _278_ _264_ _042_ VDD VSS MUX2_X1
X_572_ dpath.a_lt_b$in0[14] req_msg[14] req_rdy _279_ VDD
+ VSS MUX2_X1
X_573_ dpath.a_lt_b$in1[14] _279_ _264_ _043_ VDD VSS MUX2_X1
X_574_ dpath.a_lt_b$in0[15] req_msg[15] req_rdy _280_ VDD
+ VSS MUX2_X1
X_575_ dpath.a_lt_b$in1[15] _280_ _264_ _044_ VDD VSS MUX2_X1
X_576_ _000_ clk req_rdy _005_ VDD VSS DFF_X1
X_577_ _001_ clk ctrl.state.out[1] _003_ VDD VSS DFF_X1
X_578_ _002_ clk ctrl.state.out[2] _004_ VDD VSS DFF_X1
X_579_ _022_ clk dpath.a_lt_b$in0[0] _281_ VDD VSS DFF_X1
X_580_ _029_ clk dpath.a_lt_b$in0[1] _282_ VDD VSS DFF_X1
X_581_ _030_ clk dpath.a_lt_b$in0[2] _283_ VDD VSS DFF_X1
X_582_ _031_ clk dpath.a_lt_b$in0[3] _284_ VDD VSS DFF_X1
X_583_ _032_ clk dpath.a_lt_b$in0[4] _285_ VDD VSS DFF_X1
X_584_ _033_ clk dpath.a_lt_b$in0[5] _286_ VDD VSS DFF_X1
X_585_ _034_ clk dpath.a_lt_b$in0[6] _287_ VDD VSS DFF_X1
X_586_ _035_ clk dpath.a_lt_b$in0[7] _288_ VDD VSS DFF_X1
X_587_ _036_ clk dpath.a_lt_b$in0[8] _289_ VDD VSS DFF_X1
X_588_ _037_ clk dpath.a_lt_b$in0[9] _290_ VDD VSS DFF_X1
X_589_ _023_ clk dpath.a_lt_b$in0[10] _291_ VDD VSS DFF_X1
X_590_ _024_ clk dpath.a_lt_b$in0[11] _292_ VDD VSS DFF_X1
X_591_ _025_ clk dpath.a_lt_b$in0[12] _293_ VDD VSS DFF_X1
X_592_ _026_ clk dpath.a_lt_b$in0[13] _294_ VDD VSS DFF_X1
X_593_ _027_ clk dpath.a_lt_b$in0[14] _295_ VDD VSS DFF_X1
X_594_ _028_ clk dpath.a_lt_b$in0[15] _296_ VDD VSS DFF_X1
X_595_ _038_ clk dpath.a_lt_b$in1[0] _006_ VDD VSS DFF_X1
X_596_ _045_ clk dpath.a_lt_b$in1[1] _007_ VDD VSS DFF_X1
X_597_ _046_ clk dpath.a_lt_b$in1[2] _008_ VDD VSS DFF_X1
X_598_ _047_ clk dpath.a_lt_b$in1[3] _009_ VDD VSS DFF_X1
X_599_ _048_ clk dpath.a_lt_b$in1[4] _010_ VDD VSS DFF_X1
X_600_ _049_ clk dpath.a_lt_b$in1[5] _011_ VDD VSS DFF_X1
X_601_ _050_ clk dpath.a_lt_b$in1[6] _012_ VDD VSS DFF_X1
X_602_ _051_ clk dpath.a_lt_b$in1[7] _013_ VDD VSS DFF_X1
X_603_ _052_ clk dpath.a_lt_b$in1[8] _014_ VDD VSS DFF_X1
X_604_ _053_ clk dpath.a_lt_b$in1[9] _015_ VDD VSS DFF_X1
X_605_ _039_ clk dpath.a_lt_b$in1[10] _016_ VDD VSS DFF_X1
X_606_ _040_ clk dpath.a_lt_b$in1[11] _017_ VDD VSS DFF_X1
X_607_ _041_ clk dpath.a_lt_b$in1[12] _018_ VDD VSS DFF_X1
X_608_ _042_ clk dpath.a_lt_b$in1[13] _019_ VDD VSS DFF_X1
X_609_ _043_ clk dpath.a_lt_b$in1[14] _020_ VDD VSS DFF_X1
X_610_ _044_ clk dpath.a_lt_b$in1[15] _021_ VDD VSS DFF_X1
.ENDS gcd
