* CDL Netlist generated by OpenROAD

*.BUSDELIMITER [

.SUBCKT top in_reg[0] in_reg[1] out_reg[0] out_reg[1]
Xi_macro in_reg[0] in_reg[1] out_reg[0] out_reg[1] _unconnected_0
+ _unconnected_1 MACRO_CELL
.ENDS top
