*SPEF "ieee 1481-1999"
*DESIGN "multi_sink"
*DATE "11:11:11 Fri 11 11, 1111"
*VENDOR "The OpenROAD Project"
*PROGRAM "OpenROAD"
*VERSION "1.0"
*DESIGN_FLOW "NAME_SCOPE LOCAL" "PIN_CAP NONE"
*DIVIDER /
*DELIMITER :
*BUS_DELIMITER []
*T_UNIT 1 NS
*C_UNIT 1 FF
*R_UNIT 1 KOHM
*L_UNIT 1 HENRY

*PORTS
clk I

*D_NET clk 2.48096
*CONN
*P clk I
*I clkbuf_0_clk:A I *D CLKBUF_X3
*CAP
1 clk:0 1.24048
2 clk:1 1.24048
*RES
1 clk:0 clk:1 0.0510605
2 clk:0 clkbuf_0_clk:A 1e-06
3 clk:0 clkbuf_0_clk:A 1e-06
4 clk:0 clkbuf_0_clk:A 1e-06
5 clk:0 clkbuf_0_clk:A 1e-06
6 clk:0 clkbuf_0_clk:A 1e-06
7 clk:1 clk 1e-06
8 clk:1 clk 1e-06
9 clk:1 clk 1e-06
10 clk:1 clk 1e-06
11 clk:1 clk:1 1e-06
12 clk:1 clk 1e-06
13 clk:1 clk 1e-06
*END

*D_NET gclk1 1.77451
*CONN
*I gclk1:GCK O *D CLKGATE_X1
*I clkbuf_0_gclk1:A I *D CLKBUF_X3
*CAP
1 gclk1:0 0.887254
2 gclk1:1 0.887254
*RES
1 gclk1:0 gclk1:0 1e-06
2 gclk1:0 gclk1:GCK 1e-06
3 gclk1:0 gclk1:GCK 1e-06
4 gclk1:0 gclk1:GCK 1e-06
5 gclk1:0 gclk1:GCK 1e-06
6 gclk1:0 gclk1:GCK 1e-06
7 gclk1:0 gclk1:GCK 1e-06
8 gclk1:1 gclk1:0 0.0365211
9 gclk1:1 clkbuf_0_gclk1:A 1e-06
10 gclk1:1 clkbuf_0_gclk1:A 1e-06
11 gclk1:1 clkbuf_0_gclk1:A 1e-06
12 gclk1:1 clkbuf_0_gclk1:A 1e-06
13 gclk1:1 clkbuf_0_gclk1:A 1e-06
14 gclk1:0 gclk1:GCK 1e-06
*END

*D_NET gclk3 2.14014
*CONN
*I gclk3:GCK O *D CLKGATE_X1
*I clkbuf_0_gclk3:A I *D CLKBUF_X3
*CAP
1 gclk3:0 1.07007
2 gclk3:1 1.07007
*RES
1 gclk3:0 gclk3:0 1e-06
2 gclk3:0 gclk3:GCK 1e-06
3 gclk3:0 gclk3:GCK 1e-06
4 gclk3:0 gclk3:GCK 1e-06
5 gclk3:0 gclk3:GCK 1e-06
6 gclk3:0 gclk3:GCK 1e-06
7 gclk3:0 gclk3:GCK 1e-06
8 gclk3:1 gclk3:0 0.0440461
9 gclk3:1 clkbuf_0_gclk3:A 1e-06
10 gclk3:1 clkbuf_0_gclk3:A 1e-06
11 gclk3:1 clkbuf_0_gclk3:A 1e-06
12 gclk3:1 clkbuf_0_gclk3:A 1e-06
13 gclk3:1 clkbuf_0_gclk3:A 1e-06
14 gclk3:0 gclk3:GCK 1e-06
*END

*D_NET gclk4 1.0377
*CONN
*I gclk4:GCK O *D CLKGATE_X1
*I clkbuf_0_gclk4:A I *D CLKBUF_X3
*I delaybuf_0_core:A I *D CLKBUF_X3
*CAP
1 gclk4:0 0.189109
2 gclk4:1 0.187194
3 gclk4:2 0.142548
4 gclk4:3 0.518851
*RES
1 gclk4:0 gclk4:0 1e-06
2 gclk4:0 gclk4:GCK 1e-06
3 gclk4:0 gclk4:GCK 1e-06
4 gclk4:0 gclk4:GCK 1e-06
5 gclk4:0 gclk4:GCK 1e-06
6 gclk4:0 gclk4:GCK 1e-06
7 gclk4:0 gclk4:GCK 1e-06
8 gclk4:1 gclk4:3 0.00770526
9 gclk4:1 clkbuf_0_gclk4:A 1e-06
10 gclk4:1 clkbuf_0_gclk4:A 1e-06
11 gclk4:1 clkbuf_0_gclk4:A 1e-06
12 gclk4:1 clkbuf_0_gclk4:A 1e-06
13 gclk4:1 clkbuf_0_gclk4:A 1e-06
14 gclk4:2 gclk4:3 0.00586756
15 gclk4:2 delaybuf_0_core:A 1e-06
16 gclk4:2 delaybuf_0_core:A 1e-06
17 gclk4:2 delaybuf_0_core:A 1e-06
18 gclk4:2 delaybuf_0_core:A 1e-06
19 gclk4:2 delaybuf_0_core:A 1e-06
20 gclk4:3 gclk4:0 0.00778411
21 gclk4:0 gclk4:GCK 1e-06
*END

*D_NET h1/gclk2 1.65117
*CONN
*I h1/gclk2:GCK O *D CLKGATE_X1
*I h1/clkbuf_0_h1\/gclk2:A I *D CLKBUF_X3
*CAP
1 h1/gclk2:0 0.825586
2 h1/gclk2:1 0.825586
*RES
1 h1/gclk2:0 h1/gclk2:0 1e-06
2 h1/gclk2:0 h1/gclk2:GCK 1e-06
3 h1/gclk2:0 h1/gclk2:GCK 1e-06
4 h1/gclk2:0 h1/gclk2:GCK 1e-06
5 h1/gclk2:0 h1/gclk2:GCK 1e-06
6 h1/gclk2:0 h1/gclk2:GCK 1e-06
7 h1/gclk2:0 h1/gclk2:GCK 1e-06
8 h1/gclk2:1 h1/gclk2:0 0.0339828
9 h1/gclk2:1 h1/clkbuf_0_h1\/gclk2:A 1e-06
10 h1/gclk2:1 h1/clkbuf_0_h1\/gclk2:A 1e-06
11 h1/gclk2:1 h1/clkbuf_0_h1\/gclk2:A 1e-06
12 h1/gclk2:1 h1/clkbuf_0_h1\/gclk2:A 1e-06
13 h1/gclk2:1 h1/clkbuf_0_h1\/gclk2:A 1e-06
14 h1/gclk2:0 h1/gclk2:GCK 1e-06
*END

*D_NET h1/gclk5 2.63531
*CONN
*I h1/gclk5:GCK O *D CLKGATE_X1
*I h1/clkbuf_0_h1\/gclk5:A I *D CLKBUF_X3
*CAP
1 h1/gclk5:0 1.31765
2 h1/gclk5:1 1.31765
*RES
1 h1/gclk5:0 h1/gclk5:0 1e-06
2 h1/gclk5:0 h1/gclk5:GCK 1e-06
3 h1/gclk5:0 h1/gclk5:GCK 1e-06
4 h1/gclk5:0 h1/gclk5:GCK 1e-06
5 h1/gclk5:0 h1/gclk5:GCK 1e-06
6 h1/gclk5:0 h1/gclk5:GCK 1e-06
7 h1/gclk5:0 h1/gclk5:GCK 1e-06
8 h1/gclk5:1 h1/gclk5:0 0.0542372
9 h1/gclk5:1 h1/clkbuf_0_h1\/gclk5:A 1e-06
10 h1/gclk5:1 h1/clkbuf_0_h1\/gclk5:A 1e-06
11 h1/gclk5:1 h1/clkbuf_0_h1\/gclk5:A 1e-06
12 h1/gclk5:1 h1/clkbuf_0_h1\/gclk5:A 1e-06
13 h1/gclk5:1 h1/clkbuf_0_h1\/gclk5:A 1e-06
14 h1/gclk5:0 h1/gclk5:GCK 1e-06
*END

*D_NET gclk4_regs 0.038132
*CONN
*I clkbuf_regs_0_core:Z O *D CLKBUF_X3
*I clkbuf_0_gclk4_regs:A I *D CLKBUF_X3
*CAP
1 gclk4_regs:0 0.019066
2 gclk4_regs:1 0.019066
*RES
1 gclk4_regs:0 gclk4_regs:1 0.000784795
2 gclk4_regs:0 clkbuf_0_gclk4_regs:A 1e-06
3 gclk4_regs:0 clkbuf_0_gclk4_regs:A 1e-06
4 gclk4_regs:0 clkbuf_0_gclk4_regs:A 1e-06
5 gclk4_regs:0 clkbuf_0_gclk4_regs:A 1e-06
6 gclk4_regs:0 clkbuf_0_gclk4_regs:A 1e-06
7 gclk4_regs:1 clkbuf_regs_0_core:Z 1e-06
8 gclk4_regs:1 clkbuf_regs_0_core:Z 1e-06
9 gclk4_regs:1 clkbuf_regs_0_core:Z 1e-06
10 gclk4_regs:1 clkbuf_regs_0_core:Z 1e-06
11 gclk4_regs:1 clkbuf_regs_0_core:Z 1e-06
12 gclk4_regs:1 gclk4_regs:1 1e-06
13 gclk4_regs:1 clkbuf_regs_0_core:Z 1e-06
14 gclk4_regs:1 clkbuf_regs_0_core:Z 1e-06
*END

*D_NET clknet_0_clk 0.692398
*CONN
*I clkbuf_0_clk:Z O *D CLKBUF_X3
*I clkbuf_1_0__f_clk:A I *D CLKBUF_X3
*I delaybuf_4_core:A I *D CLKBUF_X3
*CAP
1 clknet_0_clk:0 0.274496
2 clknet_0_clk:1 0.346199
3 clknet_0_clk:2 0.0717028
*RES
1 clknet_0_clk:0 clknet_0_clk:1 0.0112988
2 clknet_0_clk:0 clkbuf_1_0__f_clk:A 1e-06
3 clknet_0_clk:0 clkbuf_1_0__f_clk:A 1e-06
4 clknet_0_clk:0 clkbuf_1_0__f_clk:A 1e-06
5 clknet_0_clk:0 clkbuf_1_0__f_clk:A 1e-06
6 clknet_0_clk:0 clkbuf_1_0__f_clk:A 1e-06
7 clknet_0_clk:1 clkbuf_0_clk:Z 1e-06
8 clknet_0_clk:1 clkbuf_0_clk:Z 1e-06
9 clknet_0_clk:1 clkbuf_0_clk:Z 1e-06
10 clknet_0_clk:1 clkbuf_0_clk:Z 1e-06
11 clknet_0_clk:1 clkbuf_0_clk:Z 1e-06
12 clknet_0_clk:1 clknet_0_clk:1 1e-06
13 clknet_0_clk:1 clkbuf_0_clk:Z 1e-06
14 clknet_0_clk:1 clkbuf_0_clk:Z 1e-06
15 clknet_0_clk:2 clknet_0_clk:1 0.00295143
16 clknet_0_clk:2 delaybuf_4_core:A 1e-06
17 clknet_0_clk:2 delaybuf_4_core:A 1e-06
18 clknet_0_clk:2 delaybuf_4_core:A 1e-06
19 clknet_0_clk:2 delaybuf_4_core:A 1e-06
20 clknet_0_clk:2 delaybuf_4_core:A 1e-06
21 clknet_0_clk:1 clkbuf_0_clk:Z 1e-06
*END

*D_NET clknet_1_0__leaf_clk 0.507722
*CONN
*I gclk4:CK I *D CLKGATE_X1
*I clkbuf_1_0__f_clk:Z O *D CLKBUF_X3
*I delaybuf_2_core:A I *D CLKBUF_X3
*CAP
1 clknet_1_0__leaf_clk:0 0.0440434
2 clknet_1_0__leaf_clk:1 0.122935
3 clknet_1_0__leaf_clk:2 0.0868827
4 clknet_1_0__leaf_clk:3 0.253861
*RES
1 clknet_1_0__leaf_clk:0 clknet_1_0__leaf_clk:3 0.00181291
2 clknet_1_0__leaf_clk:0 delaybuf_2_core:A 1e-06
3 clknet_1_0__leaf_clk:0 delaybuf_2_core:A 1e-06
4 clknet_1_0__leaf_clk:0 delaybuf_2_core:A 1e-06
5 clknet_1_0__leaf_clk:0 delaybuf_2_core:A 1e-06
6 clknet_1_0__leaf_clk:0 delaybuf_2_core:A 1e-06
7 clknet_1_0__leaf_clk:1 clknet_1_0__leaf_clk:1 1e-06
8 clknet_1_0__leaf_clk:1 clkbuf_1_0__f_clk:Z 1e-06
9 clknet_1_0__leaf_clk:1 clkbuf_1_0__f_clk:Z 1e-06
10 clknet_1_0__leaf_clk:1 clkbuf_1_0__f_clk:Z 1e-06
11 clknet_1_0__leaf_clk:1 clkbuf_1_0__f_clk:Z 1e-06
12 clknet_1_0__leaf_clk:1 clkbuf_1_0__f_clk:Z 1e-06
13 clknet_1_0__leaf_clk:1 clkbuf_1_0__f_clk:Z 1e-06
14 clknet_1_0__leaf_clk:2 clknet_1_0__leaf_clk:3 0.00357626
15 clknet_1_0__leaf_clk:2 gclk4:CK 1e-06
16 clknet_1_0__leaf_clk:2 gclk4:CK 1e-06
17 clknet_1_0__leaf_clk:2 gclk4:CK 1e-06
18 clknet_1_0__leaf_clk:2 gclk4:CK 1e-06
19 clknet_1_0__leaf_clk:2 gclk4:CK 1e-06
20 clknet_1_0__leaf_clk:3 clknet_1_0__leaf_clk:1 0.00506024
21 clknet_1_0__leaf_clk:1 clkbuf_1_0__f_clk:Z 1e-06
*END

*D_NET clknet_1_1__leaf_clk 1.8318
*CONN
*I gclk1:CK I *D CLKGATE_X1
*I h1/gclk2:CK I *D CLKGATE_X1
*I clkbuf_1_1__f_clk:Z O *D CLKBUF_X3
*CAP
1 clknet_1_1__leaf_clk:0 0.508306
2 clknet_1_1__leaf_clk:1 0.915899
3 clknet_1_1__leaf_clk:2 0.407593
*RES
1 clknet_1_1__leaf_clk:0 clknet_1_1__leaf_clk:1 0.0209229
2 clknet_1_1__leaf_clk:0 h1/gclk2:CK 1e-06
3 clknet_1_1__leaf_clk:0 h1/gclk2:CK 1e-06
4 clknet_1_1__leaf_clk:0 h1/gclk2:CK 1e-06
5 clknet_1_1__leaf_clk:0 h1/gclk2:CK 1e-06
6 clknet_1_1__leaf_clk:0 h1/gclk2:CK 1e-06
7 clknet_1_1__leaf_clk:1 clkbuf_1_1__f_clk:Z 1e-06
8 clknet_1_1__leaf_clk:1 clkbuf_1_1__f_clk:Z 1e-06
9 clknet_1_1__leaf_clk:1 clkbuf_1_1__f_clk:Z 1e-06
10 clknet_1_1__leaf_clk:1 clkbuf_1_1__f_clk:Z 1e-06
11 clknet_1_1__leaf_clk:1 clkbuf_1_1__f_clk:Z 1e-06
12 clknet_1_1__leaf_clk:1 clknet_1_1__leaf_clk:1 1e-06
13 clknet_1_1__leaf_clk:1 clkbuf_1_1__f_clk:Z 1e-06
14 clknet_1_1__leaf_clk:1 clkbuf_1_1__f_clk:Z 1e-06
15 clknet_1_1__leaf_clk:2 clknet_1_1__leaf_clk:1 0.0167773
16 clknet_1_1__leaf_clk:2 gclk1:CK 1e-06
17 clknet_1_1__leaf_clk:2 gclk1:CK 1e-06
18 clknet_1_1__leaf_clk:2 gclk1:CK 1e-06
19 clknet_1_1__leaf_clk:2 gclk1:CK 1e-06
20 clknet_1_1__leaf_clk:2 gclk1:CK 1e-06
21 clknet_1_1__leaf_clk:1 clkbuf_1_1__f_clk:Z 1e-06
*END

*D_NET clknet_0_h1\/gclk5 7.57219
*CONN
*I h1/clkbuf_0_h1\/gclk5:Z O *D CLKBUF_X3
*I h1/clkbuf_4_0__f_h1\/gclk5:A I *D CLKBUF_X3
*I h1/clkbuf_4_1__f_h1\/gclk5:A I *D CLKBUF_X3
*I h1/clkbuf_4_2__f_h1\/gclk5:A I *D CLKBUF_X3
*I h1/clkbuf_4_3__f_h1\/gclk5:A I *D CLKBUF_X3
*I h1/clkbuf_4_4__f_h1\/gclk5:A I *D CLKBUF_X3
*I h1/clkbuf_4_5__f_h1\/gclk5:A I *D CLKBUF_X3
*I h1/clkbuf_4_6__f_h1\/gclk5:A I *D CLKBUF_X3
*I h1/clkbuf_4_7__f_h1\/gclk5:A I *D CLKBUF_X3
*I h1/clkbuf_4_8__f_h1\/gclk5:A I *D CLKBUF_X3
*I h1/clkbuf_4_9__f_h1\/gclk5:A I *D CLKBUF_X3
*I h1/clkbuf_4_10__f_h1\/gclk5:A I *D CLKBUF_X3
*I h1/clkbuf_4_11__f_h1\/gclk5:A I *D CLKBUF_X3
*I h1/clkbuf_4_12__f_h1\/gclk5:A I *D CLKBUF_X3
*I h1/clkbuf_4_13__f_h1\/gclk5:A I *D CLKBUF_X3
*I h1/clkbuf_4_14__f_h1\/gclk5:A I *D CLKBUF_X3
*I h1/clkbuf_4_15__f_h1\/gclk5:A I *D CLKBUF_X3
*CAP
1 clknet_0_h1\/gclk5:0 0.00979756
2 clknet_0_h1\/gclk5:1 0.00979756
3 clknet_0_h1\/gclk5:2 0.655926
4 clknet_0_h1\/gclk5:3 0.596155
5 clknet_0_h1\/gclk5:4 0.0782893
6 clknet_0_h1\/gclk5:5 0.445306
7 clknet_0_h1\/gclk5:6 0.358551
8 clknet_0_h1\/gclk5:7 0.537844
9 clknet_0_h1\/gclk5:8 0.0501737
10 clknet_0_h1\/gclk5:9 0.352128
11 clknet_0_h1\/gclk5:10 0.363568
12 clknet_0_h1\/gclk5:11 0.311552
13 clknet_0_h1\/gclk5:12 0.0536403
14 clknet_0_h1\/gclk5:13 0.498307
15 clknet_0_h1\/gclk5:14 0.670704
16 clknet_0_h1\/gclk5:15 0.0383327
17 clknet_0_h1\/gclk5:16 0.038351
18 clknet_0_h1\/gclk5:17 0.503781
19 clknet_0_h1\/gclk5:18 0.434286
20 clknet_0_h1\/gclk5:19 0.366305
21 clknet_0_h1\/gclk5:20 0.224614
22 clknet_0_h1\/gclk5:21 0.397486
23 clknet_0_h1\/gclk5:22 0.297959
24 clknet_0_h1\/gclk5:23 0.279331
*RES
1 clknet_0_h1\/gclk5:0 clknet_0_h1\/gclk5:23 0.000403287
2 clknet_0_h1\/gclk5:0 h1/clkbuf_4_4__f_h1\/gclk5:A 1e-06
3 clknet_0_h1\/gclk5:0 h1/clkbuf_4_4__f_h1\/gclk5:A 1e-06
4 clknet_0_h1\/gclk5:0 h1/clkbuf_4_4__f_h1\/gclk5:A 1e-06
5 clknet_0_h1\/gclk5:0 h1/clkbuf_4_4__f_h1\/gclk5:A 1e-06
6 clknet_0_h1\/gclk5:0 h1/clkbuf_4_4__f_h1\/gclk5:A 1e-06
7 clknet_0_h1\/gclk5:1 clknet_0_h1\/gclk5:23 0.000403287
8 clknet_0_h1\/gclk5:1 h1/clkbuf_4_5__f_h1\/gclk5:A 1e-06
9 clknet_0_h1\/gclk5:1 h1/clkbuf_4_5__f_h1\/gclk5:A 1e-06
10 clknet_0_h1\/gclk5:1 h1/clkbuf_4_5__f_h1\/gclk5:A 1e-06
11 clknet_0_h1\/gclk5:1 h1/clkbuf_4_5__f_h1\/gclk5:A 1e-06
12 clknet_0_h1\/gclk5:1 h1/clkbuf_4_5__f_h1\/gclk5:A 1e-06
13 clknet_0_h1\/gclk5:2 clknet_0_h1\/gclk5:3 0.016308
14 clknet_0_h1\/gclk5:2 h1/clkbuf_4_7__f_h1\/gclk5:A 1e-06
15 clknet_0_h1\/gclk5:2 h1/clkbuf_4_7__f_h1\/gclk5:A 1e-06
16 clknet_0_h1\/gclk5:2 h1/clkbuf_4_7__f_h1\/gclk5:A 1e-06
17 clknet_0_h1\/gclk5:2 h1/clkbuf_4_7__f_h1\/gclk5:A 1e-06
18 clknet_0_h1\/gclk5:2 h1/clkbuf_4_7__f_h1\/gclk5:A 1e-06
19 clknet_0_h1\/gclk5:3 h1/clkbuf_4_6__f_h1\/gclk5:A 1e-06
20 clknet_0_h1\/gclk5:3 h1/clkbuf_4_6__f_h1\/gclk5:A 1e-06
21 clknet_0_h1\/gclk5:3 h1/clkbuf_4_6__f_h1\/gclk5:A 1e-06
22 clknet_0_h1\/gclk5:3 h1/clkbuf_4_6__f_h1\/gclk5:A 1e-06
23 clknet_0_h1\/gclk5:3 h1/clkbuf_4_6__f_h1\/gclk5:A 1e-06
24 clknet_0_h1\/gclk5:3 clknet_0_h1\/gclk5:18 0.00823096
25 clknet_0_h1\/gclk5:3 h1/clkbuf_4_6__f_h1\/gclk5:A 1e-06
26 clknet_0_h1\/gclk5:4 clknet_0_h1\/gclk5:18 0.00322254
27 clknet_0_h1\/gclk5:4 h1/clkbuf_4_0__f_h1\/gclk5:A 1e-06
28 clknet_0_h1\/gclk5:4 h1/clkbuf_4_0__f_h1\/gclk5:A 1e-06
29 clknet_0_h1\/gclk5:4 h1/clkbuf_4_0__f_h1\/gclk5:A 1e-06
30 clknet_0_h1\/gclk5:4 h1/clkbuf_4_0__f_h1\/gclk5:A 1e-06
31 clknet_0_h1\/gclk5:4 h1/clkbuf_4_0__f_h1\/gclk5:A 1e-06
32 clknet_0_h1\/gclk5:5 clknet_0_h1\/gclk5:17 0.0119071
33 clknet_0_h1\/gclk5:5 h1/clkbuf_4_1__f_h1\/gclk5:A 1e-06
34 clknet_0_h1\/gclk5:5 h1/clkbuf_4_1__f_h1\/gclk5:A 1e-06
35 clknet_0_h1\/gclk5:5 h1/clkbuf_4_1__f_h1\/gclk5:A 1e-06
36 clknet_0_h1\/gclk5:5 h1/clkbuf_4_1__f_h1\/gclk5:A 1e-06
37 clknet_0_h1\/gclk5:5 h1/clkbuf_4_1__f_h1\/gclk5:A 1e-06
38 clknet_0_h1\/gclk5:6 clknet_0_h1\/gclk5:7 0.0147587
39 clknet_0_h1\/gclk5:6 h1/clkbuf_4_2__f_h1\/gclk5:A 1e-06
40 clknet_0_h1\/gclk5:6 h1/clkbuf_4_2__f_h1\/gclk5:A 1e-06
41 clknet_0_h1\/gclk5:6 h1/clkbuf_4_2__f_h1\/gclk5:A 1e-06
42 clknet_0_h1\/gclk5:6 h1/clkbuf_4_2__f_h1\/gclk5:A 1e-06
43 clknet_0_h1\/gclk5:6 h1/clkbuf_4_2__f_h1\/gclk5:A 1e-06
44 clknet_0_h1\/gclk5:7 h1/clkbuf_4_3__f_h1\/gclk5:A 1e-06
45 clknet_0_h1\/gclk5:7 h1/clkbuf_4_3__f_h1\/gclk5:A 1e-06
46 clknet_0_h1\/gclk5:7 h1/clkbuf_4_3__f_h1\/gclk5:A 1e-06
47 clknet_0_h1\/gclk5:7 h1/clkbuf_4_3__f_h1\/gclk5:A 1e-06
48 clknet_0_h1\/gclk5:7 h1/clkbuf_4_3__f_h1\/gclk5:A 1e-06
49 clknet_0_h1\/gclk5:7 clknet_0_h1\/gclk5:17 0.00738008
50 clknet_0_h1\/gclk5:7 h1/clkbuf_4_3__f_h1\/gclk5:A 1e-06
51 clknet_0_h1\/gclk5:8 clknet_0_h1\/gclk5:8 1e-06
52 clknet_0_h1\/gclk5:8 h1/clkbuf_0_h1\/gclk5:Z 1e-06
53 clknet_0_h1\/gclk5:8 h1/clkbuf_0_h1\/gclk5:Z 1e-06
54 clknet_0_h1\/gclk5:8 h1/clkbuf_0_h1\/gclk5:Z 1e-06
55 clknet_0_h1\/gclk5:8 h1/clkbuf_0_h1\/gclk5:Z 1e-06
56 clknet_0_h1\/gclk5:8 h1/clkbuf_0_h1\/gclk5:Z 1e-06
57 clknet_0_h1\/gclk5:8 h1/clkbuf_0_h1\/gclk5:Z 1e-06
58 clknet_0_h1\/gclk5:9 clknet_0_h1\/gclk5:10 0.0144943
59 clknet_0_h1\/gclk5:9 h1/clkbuf_4_8__f_h1\/gclk5:A 1e-06
60 clknet_0_h1\/gclk5:9 h1/clkbuf_4_8__f_h1\/gclk5:A 1e-06
61 clknet_0_h1\/gclk5:9 h1/clkbuf_4_8__f_h1\/gclk5:A 1e-06
62 clknet_0_h1\/gclk5:9 h1/clkbuf_4_8__f_h1\/gclk5:A 1e-06
63 clknet_0_h1\/gclk5:9 h1/clkbuf_4_8__f_h1\/gclk5:A 1e-06
64 clknet_0_h1\/gclk5:10 h1/clkbuf_4_9__f_h1\/gclk5:A 1e-06
65 clknet_0_h1\/gclk5:10 h1/clkbuf_4_9__f_h1\/gclk5:A 1e-06
66 clknet_0_h1\/gclk5:10 h1/clkbuf_4_9__f_h1\/gclk5:A 1e-06
67 clknet_0_h1\/gclk5:10 h1/clkbuf_4_9__f_h1\/gclk5:A 1e-06
68 clknet_0_h1\/gclk5:10 h1/clkbuf_4_9__f_h1\/gclk5:A 1e-06
69 clknet_0_h1\/gclk5:10 clknet_0_h1\/gclk5:22 0.000470877
70 clknet_0_h1\/gclk5:10 h1/clkbuf_4_9__f_h1\/gclk5:A 1e-06
71 clknet_0_h1\/gclk5:11 clknet_0_h1\/gclk5:22 0.00606282
72 clknet_0_h1\/gclk5:11 h1/clkbuf_4_11__f_h1\/gclk5:A 1e-06
73 clknet_0_h1\/gclk5:11 h1/clkbuf_4_11__f_h1\/gclk5:A 1e-06
74 clknet_0_h1\/gclk5:11 h1/clkbuf_4_11__f_h1\/gclk5:A 1e-06
75 clknet_0_h1\/gclk5:11 h1/clkbuf_4_11__f_h1\/gclk5:A 1e-06
76 clknet_0_h1\/gclk5:11 h1/clkbuf_4_11__f_h1\/gclk5:A 1e-06
77 clknet_0_h1\/gclk5:12 clknet_0_h1\/gclk5:19 0.00220794
78 clknet_0_h1\/gclk5:12 h1/clkbuf_4_10__f_h1\/gclk5:A 1e-06
79 clknet_0_h1\/gclk5:12 h1/clkbuf_4_10__f_h1\/gclk5:A 1e-06
80 clknet_0_h1\/gclk5:12 h1/clkbuf_4_10__f_h1\/gclk5:A 1e-06
81 clknet_0_h1\/gclk5:12 h1/clkbuf_4_10__f_h1\/gclk5:A 1e-06
82 clknet_0_h1\/gclk5:12 h1/clkbuf_4_10__f_h1\/gclk5:A 1e-06
83 clknet_0_h1\/gclk5:13 clknet_0_h1\/gclk5:19 0.00610863
84 clknet_0_h1\/gclk5:13 h1/clkbuf_4_12__f_h1\/gclk5:A 1e-06
85 clknet_0_h1\/gclk5:13 h1/clkbuf_4_12__f_h1\/gclk5:A 1e-06
86 clknet_0_h1\/gclk5:13 h1/clkbuf_4_12__f_h1\/gclk5:A 1e-06
87 clknet_0_h1\/gclk5:13 h1/clkbuf_4_12__f_h1\/gclk5:A 1e-06
88 clknet_0_h1\/gclk5:13 h1/clkbuf_4_12__f_h1\/gclk5:A 1e-06
89 clknet_0_h1\/gclk5:14 clknet_0_h1\/gclk5:13 0.0144027
90 clknet_0_h1\/gclk5:14 h1/clkbuf_4_13__f_h1\/gclk5:A 1e-06
91 clknet_0_h1\/gclk5:14 h1/clkbuf_4_13__f_h1\/gclk5:A 1e-06
92 clknet_0_h1\/gclk5:14 h1/clkbuf_4_13__f_h1\/gclk5:A 1e-06
93 clknet_0_h1\/gclk5:14 h1/clkbuf_4_13__f_h1\/gclk5:A 1e-06
94 clknet_0_h1\/gclk5:14 h1/clkbuf_4_13__f_h1\/gclk5:A 1e-06
95 clknet_0_h1\/gclk5:13 h1/clkbuf_4_12__f_h1\/gclk5:A 1e-06
96 clknet_0_h1\/gclk5:15 clknet_0_h1\/gclk5:21 0.00157785
97 clknet_0_h1\/gclk5:15 h1/clkbuf_4_15__f_h1\/gclk5:A 1e-06
98 clknet_0_h1\/gclk5:15 h1/clkbuf_4_15__f_h1\/gclk5:A 1e-06
99 clknet_0_h1\/gclk5:15 h1/clkbuf_4_15__f_h1\/gclk5:A 1e-06
100 clknet_0_h1\/gclk5:15 h1/clkbuf_4_15__f_h1\/gclk5:A 1e-06
101 clknet_0_h1\/gclk5:15 h1/clkbuf_4_15__f_h1\/gclk5:A 1e-06
102 clknet_0_h1\/gclk5:16 clknet_0_h1\/gclk5:21 0.0015786
103 clknet_0_h1\/gclk5:16 h1/clkbuf_4_14__f_h1\/gclk5:A 1e-06
104 clknet_0_h1\/gclk5:16 h1/clkbuf_4_14__f_h1\/gclk5:A 1e-06
105 clknet_0_h1\/gclk5:16 h1/clkbuf_4_14__f_h1\/gclk5:A 1e-06
106 clknet_0_h1\/gclk5:16 h1/clkbuf_4_14__f_h1\/gclk5:A 1e-06
107 clknet_0_h1\/gclk5:16 h1/clkbuf_4_14__f_h1\/gclk5:A 1e-06
108 clknet_0_h1\/gclk5:17 clknet_0_h1\/gclk5:20 0.00144943
109 clknet_0_h1\/gclk5:18 clknet_0_h1\/gclk5:5 0.00642255
110 clknet_0_h1\/gclk5:5 h1/clkbuf_4_1__f_h1\/gclk5:A 1e-06
111 clknet_0_h1\/gclk5:19 clknet_0_h1\/gclk5:11 0.00676125
112 clknet_0_h1\/gclk5:11 h1/clkbuf_4_11__f_h1\/gclk5:A 1e-06
113 clknet_0_h1\/gclk5:20 clknet_0_h1\/gclk5:8 0.00206525
114 clknet_0_h1\/gclk5:8 h1/clkbuf_0_h1\/gclk5:Z 1e-06
115 clknet_0_h1\/gclk5:21 clknet_0_h1\/gclk5:14 0.0132048
116 clknet_0_h1\/gclk5:14 h1/clkbuf_4_13__f_h1\/gclk5:A 1e-06
117 clknet_0_h1\/gclk5:22 clknet_0_h1\/gclk5:20 0.00573088
118 clknet_0_h1\/gclk5:23 clknet_0_h1\/gclk5:2 0.0106912
119 clknet_0_h1\/gclk5:2 h1/clkbuf_4_7__f_h1\/gclk5:A 1e-06
*END

*D_NET clknet_4_0__leaf_h1\/gclk5 0.727699
*CONN
*I h1/ff23:CK I *D DFF_X1
*I h1/ff28:CK I *D DFF_X1
*I h1/ff40:CK I *D DFF_X1
*I h1/ff46:CK I *D DFF_X1
*I h1/ff65:CK I *D DFF_X1
*I h1/ff85:CK I *D DFF_X1
*I h1/clkbuf_4_0__f_h1\/gclk5:Z O *D CLKBUF_X3
*I clkload0:A I *D INV_X4
*CAP
1 clknet_4_0__leaf_h1\/gclk5:0 0.0590006
2 clknet_4_0__leaf_h1\/gclk5:1 0.0781476
3 clknet_4_0__leaf_h1\/gclk5:2 0.086077
4 clknet_4_0__leaf_h1\/gclk5:3 0.0590006
5 clknet_4_0__leaf_h1\/gclk5:4 0.0630029
6 clknet_4_0__leaf_h1\/gclk5:5 9.395e-05
7 clknet_4_0__leaf_h1\/gclk5:6 0.0590006
8 clknet_4_0__leaf_h1\/gclk5:7 0.136528
9 clknet_4_0__leaf_h1\/gclk5:8 0.0893089
10 clknet_4_0__leaf_h1\/gclk5:9 0.0975389
*RES
1 clknet_4_0__leaf_h1\/gclk5:0 clknet_4_0__leaf_h1\/gclk5:1 0.00561118
2 clknet_4_0__leaf_h1\/gclk5:0 h1/ff85:CK 1e-06
3 clknet_4_0__leaf_h1\/gclk5:0 h1/ff85:CK 1e-06
4 clknet_4_0__leaf_h1\/gclk5:1 h1/ff65:CK 1e-06
5 clknet_4_0__leaf_h1\/gclk5:1 h1/ff65:CK 1e-06
6 clknet_4_0__leaf_h1\/gclk5:1 clknet_4_0__leaf_h1\/gclk5:8 0.00182095
7 clknet_4_0__leaf_h1\/gclk5:1 h1/ff65:CK 1e-06
8 clknet_4_0__leaf_h1\/gclk5:2 clknet_4_0__leaf_h1\/gclk5:8 0.00257507
9 clknet_4_0__leaf_h1\/gclk5:2 h1/ff46:CK 1e-06
10 clknet_4_0__leaf_h1\/gclk5:2 h1/ff46:CK 1e-06
11 clknet_4_0__leaf_h1\/gclk5:3 clknet_4_0__leaf_h1\/gclk5:2 0.00561118
12 clknet_4_0__leaf_h1\/gclk5:3 h1/ff28:CK 1e-06
13 clknet_4_0__leaf_h1\/gclk5:3 h1/ff28:CK 1e-06
14 clknet_4_0__leaf_h1\/gclk5:2 h1/ff46:CK 1e-06
15 clknet_4_0__leaf_h1\/gclk5:4 clknet_4_0__leaf_h1\/gclk5:9 0.00189422
16 clknet_4_0__leaf_h1\/gclk5:4 clkload0:A 1e-06
17 clknet_4_0__leaf_h1\/gclk5:4 clkload0:A 1e-06
18 clknet_4_0__leaf_h1\/gclk5:5 clknet_4_0__leaf_h1\/gclk5:5 1e-06
19 clknet_4_0__leaf_h1\/gclk5:5 h1/clkbuf_4_0__f_h1\/gclk5:Z 1e-06
20 clknet_4_0__leaf_h1\/gclk5:5 h1/clkbuf_4_0__f_h1\/gclk5:Z 1e-06
21 clknet_4_0__leaf_h1\/gclk5:5 h1/clkbuf_4_0__f_h1\/gclk5:Z 1e-06
22 clknet_4_0__leaf_h1\/gclk5:6 clknet_4_0__leaf_h1\/gclk5:7 0.00561118
23 clknet_4_0__leaf_h1\/gclk5:6 h1/ff40:CK 1e-06
24 clknet_4_0__leaf_h1\/gclk5:6 h1/ff40:CK 1e-06
25 clknet_4_0__leaf_h1\/gclk5:7 h1/ff23:CK 1e-06
26 clknet_4_0__leaf_h1\/gclk5:7 h1/ff23:CK 1e-06
27 clknet_4_0__leaf_h1\/gclk5:7 clknet_4_0__leaf_h1\/gclk5:9 0.00737316
28 clknet_4_0__leaf_h1\/gclk5:7 h1/ff23:CK 1e-06
29 clknet_4_0__leaf_h1\/gclk5:8 clknet_4_0__leaf_h1\/gclk5:4 0.00409759
30 clknet_4_0__leaf_h1\/gclk5:4 clkload0:A 1e-06
31 clknet_4_0__leaf_h1\/gclk5:9 clknet_4_0__leaf_h1\/gclk5:5 8.935e-06
32 clknet_4_0__leaf_h1\/gclk5:5 h1/clkbuf_4_0__f_h1\/gclk5:Z 1e-06
*END

*D_NET clknet_4_1__leaf_h1\/gclk5 1.17719
*CONN
*I h1/ff101:CK I *D DFF_X1
*I h1/ff106:CK I *D DFF_X1
*I h1/ff118:CK I *D DFF_X1
*I h1/ff122:CK I *D DFF_X1
*I h1/ff133:CK I *D DFF_X1
*I h1/ff139:CK I *D DFF_X1
*I h1/ff16:CK I *D DFF_X1
*I h1/ff60:CK I *D DFF_X1
*I h1/clkbuf_4_1__f_h1\/gclk5:Z O *D CLKBUF_X3
*I clkload1:A I *D INV_X2
*CAP
1 clknet_4_1__leaf_h1\/gclk5:0 0.204999
2 clknet_4_1__leaf_h1\/gclk5:1 0.0516725
3 clknet_4_1__leaf_h1\/gclk5:2 0.105224
4 clknet_4_1__leaf_h1\/gclk5:3 0.105224
5 clknet_4_1__leaf_h1\/gclk5:4 0.0462234
6 clknet_4_1__leaf_h1\/gclk5:5 0.102406
7 clknet_4_1__leaf_h1\/gclk5:6 0.0388013
8 clknet_4_1__leaf_h1\/gclk5:7 0.0536455
9 clknet_4_1__leaf_h1\/gclk5:8 0.0515786
10 clknet_4_1__leaf_h1\/gclk5:9 0.0462234
11 clknet_4_1__leaf_h1\/gclk5:10 0.293124
12 clknet_4_1__leaf_h1\/gclk5:11 0.0780725
*RES
1 clknet_4_1__leaf_h1\/gclk5:0 clknet_4_1__leaf_h1\/gclk5:10 0.0194962
2 clknet_4_1__leaf_h1\/gclk5:0 h1/ff60:CK 1e-06
3 clknet_4_1__leaf_h1\/gclk5:0 h1/ff60:CK 1e-06
4 clknet_4_1__leaf_h1\/gclk5:1 clknet_4_1__leaf_h1\/gclk5:10 0.00051823
5 clknet_4_1__leaf_h1\/gclk5:1 h1/ff16:CK 1e-06
6 clknet_4_1__leaf_h1\/gclk5:1 h1/ff16:CK 1e-06
7 clknet_4_1__leaf_h1\/gclk5:2 clknet_4_1__leaf_h1\/gclk5:1 0.00439602
8 clknet_4_1__leaf_h1\/gclk5:2 h1/ff139:CK 1e-06
9 clknet_4_1__leaf_h1\/gclk5:2 h1/ff139:CK 1e-06
10 clknet_4_1__leaf_h1\/gclk5:1 h1/ff16:CK 1e-06
11 clknet_4_1__leaf_h1\/gclk5:3 clknet_4_1__leaf_h1\/gclk5:2 0.00561118
12 clknet_4_1__leaf_h1\/gclk5:3 h1/ff122:CK 1e-06
13 clknet_4_1__leaf_h1\/gclk5:3 h1/ff122:CK 1e-06
14 clknet_4_1__leaf_h1\/gclk5:2 h1/ff139:CK 1e-06
15 clknet_4_1__leaf_h1\/gclk5:4 clknet_4_1__leaf_h1\/gclk5:3 0.00439602
16 clknet_4_1__leaf_h1\/gclk5:4 h1/ff106:CK 1e-06
17 clknet_4_1__leaf_h1\/gclk5:4 h1/ff106:CK 1e-06
18 clknet_4_1__leaf_h1\/gclk5:3 h1/ff122:CK 1e-06
19 clknet_4_1__leaf_h1\/gclk5:5 clknet_4_1__leaf_h1\/gclk5:6 0.00187635
20 clknet_4_1__leaf_h1\/gclk5:5 clkload1:A 1e-06
21 clknet_4_1__leaf_h1\/gclk5:5 clkload1:A 1e-06
22 clknet_4_1__leaf_h1\/gclk5:6 h1/clkbuf_4_1__f_h1\/gclk5:Z 1e-06
23 clknet_4_1__leaf_h1\/gclk5:6 h1/clkbuf_4_1__f_h1\/gclk5:Z 1e-06
24 clknet_4_1__leaf_h1\/gclk5:6 clknet_4_1__leaf_h1\/gclk5:6 1e-06
25 clknet_4_1__leaf_h1\/gclk5:6 h1/clkbuf_4_1__f_h1\/gclk5:Z 1e-06
26 clknet_4_1__leaf_h1\/gclk5:6 h1/clkbuf_4_1__f_h1\/gclk5:Z 1e-06
27 clknet_4_1__leaf_h1\/gclk5:7 clknet_4_1__leaf_h1\/gclk5:11 0.00510188
28 clknet_4_1__leaf_h1\/gclk5:7 h1/ff133:CK 1e-06
29 clknet_4_1__leaf_h1\/gclk5:7 h1/ff133:CK 1e-06
30 clknet_4_1__leaf_h1\/gclk5:8 clknet_4_1__leaf_h1\/gclk5:11 0.000509295
31 clknet_4_1__leaf_h1\/gclk5:8 h1/ff118:CK 1e-06
32 clknet_4_1__leaf_h1\/gclk5:8 h1/ff118:CK 1e-06
33 clknet_4_1__leaf_h1\/gclk5:9 clknet_4_1__leaf_h1\/gclk5:8 0.00439602
34 clknet_4_1__leaf_h1\/gclk5:9 h1/ff101:CK 1e-06
35 clknet_4_1__leaf_h1\/gclk5:9 h1/ff101:CK 1e-06
36 clknet_4_1__leaf_h1\/gclk5:8 h1/ff118:CK 1e-06
37 clknet_4_1__leaf_h1\/gclk5:10 clknet_4_1__leaf_h1\/gclk5:5 0.0078628
38 clknet_4_1__leaf_h1\/gclk5:5 clkload1:A 1e-06
39 clknet_4_1__leaf_h1\/gclk5:11 clknet_4_1__leaf_h1\/gclk5:6 0.0018138
40 clknet_4_1__leaf_h1\/gclk5:6 h1/clkbuf_4_1__f_h1\/gclk5:Z 1e-06
*END

*D_NET clknet_4_2__leaf_h1\/gclk5 1.59351
*CONN
*I h1/ff26:CK I *D DFF_X1
*I h1/ff38:CK I *D DFF_X1
*I h1/ff42:CK I *D DFF_X1
*I h1/ff47:CK I *D DFF_X1
*I h1/ff54:CK I *D DFF_X1
*I h1/ff62:CK I *D DFF_X1
*I h1/ff66:CK I *D DFF_X1
*I h1/ff75:CK I *D DFF_X1
*I h1/ff80:CK I *D DFF_X1
*I h1/ff82:CK I *D DFF_X1
*I h1/ff89:CK I *D DFF_X1
*I h1/ff94:CK I *D DFF_X1
*I h1/clkbuf_4_2__f_h1\/gclk5:Z O *D CLKBUF_X3
*I clkload2:A I *D CLKBUF_X3
*CAP
1 clknet_4_2__leaf_h1\/gclk5:0 0.121383
2 clknet_4_2__leaf_h1\/gclk5:1 0.0243894
3 clknet_4_2__leaf_h1\/gclk5:2 0.0808346
4 clknet_4_2__leaf_h1\/gclk5:3 0.105224
5 clknet_4_2__leaf_h1\/gclk5:4 0.167607
6 clknet_4_2__leaf_h1\/gclk5:5 0.115991
7 clknet_4_2__leaf_h1\/gclk5:6 9.395e-05
8 clknet_4_2__leaf_h1\/gclk5:7 0.0462234
9 clknet_4_2__leaf_h1\/gclk5:8 0.226607
10 clknet_4_2__leaf_h1\/gclk5:9 0.0887828
11 clknet_4_2__leaf_h1\/gclk5:10 0.0462234
12 clknet_4_2__leaf_h1\/gclk5:11 0.105224
13 clknet_4_2__leaf_h1\/gclk5:12 0.105224
14 clknet_4_2__leaf_h1\/gclk5:13 0.167607
15 clknet_4_2__leaf_h1\/gclk5:14 0.142672
16 clknet_4_2__leaf_h1\/gclk5:15 0.0494177
*RES
1 clknet_4_2__leaf_h1\/gclk5:0 clknet_4_2__leaf_h1\/gclk5:4 0.011544
2 clknet_4_2__leaf_h1\/gclk5:0 h1/ff80:CK 1e-06
3 clknet_4_2__leaf_h1\/gclk5:0 h1/ff80:CK 1e-06
4 clknet_4_2__leaf_h1\/gclk5:4 h1/ff38:CK 1e-06
5 clknet_4_2__leaf_h1\/gclk5:4 h1/ff38:CK 1e-06
6 clknet_4_2__leaf_h1\/gclk5:1 clknet_4_2__leaf_h1\/gclk5:14 0.00231953
7 clknet_4_2__leaf_h1\/gclk5:1 h1/ff94:CK 1e-06
8 clknet_4_2__leaf_h1\/gclk5:1 h1/ff94:CK 1e-06
9 clknet_4_2__leaf_h1\/gclk5:2 clknet_4_2__leaf_h1\/gclk5:14 0.00207649
10 clknet_4_2__leaf_h1\/gclk5:2 h1/ff75:CK 1e-06
11 clknet_4_2__leaf_h1\/gclk5:2 h1/ff75:CK 1e-06
12 clknet_4_2__leaf_h1\/gclk5:3 clknet_4_2__leaf_h1\/gclk5:2 0.00561118
13 clknet_4_2__leaf_h1\/gclk5:3 h1/ff54:CK 1e-06
14 clknet_4_2__leaf_h1\/gclk5:3 h1/ff54:CK 1e-06
15 clknet_4_2__leaf_h1\/gclk5:2 h1/ff75:CK 1e-06
16 clknet_4_2__leaf_h1\/gclk5:4 clknet_4_2__leaf_h1\/gclk5:3 0.00439602
17 clknet_4_2__leaf_h1\/gclk5:4 h1/ff38:CK 1e-06
18 clknet_4_2__leaf_h1\/gclk5:3 h1/ff54:CK 1e-06
19 clknet_4_2__leaf_h1\/gclk5:5 clknet_4_2__leaf_h1\/gclk5:15 0.00185848
20 clknet_4_2__leaf_h1\/gclk5:5 clkload2:A 1e-06
21 clknet_4_2__leaf_h1\/gclk5:5 clkload2:A 1e-06
22 clknet_4_2__leaf_h1\/gclk5:6 clknet_4_2__leaf_h1\/gclk5:6 1e-06
23 clknet_4_2__leaf_h1\/gclk5:6 h1/clkbuf_4_2__f_h1\/gclk5:Z 1e-06
24 clknet_4_2__leaf_h1\/gclk5:6 h1/clkbuf_4_2__f_h1\/gclk5:Z 1e-06
25 clknet_4_2__leaf_h1\/gclk5:6 h1/clkbuf_4_2__f_h1\/gclk5:Z 1e-06
26 clknet_4_2__leaf_h1\/gclk5:7 clknet_4_2__leaf_h1\/gclk5:8 0.00439602
27 clknet_4_2__leaf_h1\/gclk5:7 h1/ff89:CK 1e-06
28 clknet_4_2__leaf_h1\/gclk5:7 h1/ff89:CK 1e-06
29 clknet_4_2__leaf_h1\/gclk5:8 h1/ff66:CK 1e-06
30 clknet_4_2__leaf_h1\/gclk5:8 h1/ff66:CK 1e-06
31 clknet_4_2__leaf_h1\/gclk5:8 clknet_4_2__leaf_h1\/gclk5:9 0.00561118
32 clknet_4_2__leaf_h1\/gclk5:8 h1/ff66:CK 1e-06
33 clknet_4_2__leaf_h1\/gclk5:9 h1/ff47:CK 1e-06
34 clknet_4_2__leaf_h1\/gclk5:9 h1/ff47:CK 1e-06
35 clknet_4_2__leaf_h1\/gclk5:9 clknet_4_2__leaf_h1\/gclk5:15 0.0028324
36 clknet_4_2__leaf_h1\/gclk5:9 h1/ff47:CK 1e-06
37 clknet_4_2__leaf_h1\/gclk5:10 clknet_4_2__leaf_h1\/gclk5:11 0.00439602
38 clknet_4_2__leaf_h1\/gclk5:10 h1/ff82:CK 1e-06
39 clknet_4_2__leaf_h1\/gclk5:10 h1/ff82:CK 1e-06
40 clknet_4_2__leaf_h1\/gclk5:11 h1/ff62:CK 1e-06
41 clknet_4_2__leaf_h1\/gclk5:11 h1/ff62:CK 1e-06
42 clknet_4_2__leaf_h1\/gclk5:11 clknet_4_2__leaf_h1\/gclk5:12 0.00561118
43 clknet_4_2__leaf_h1\/gclk5:11 h1/ff62:CK 1e-06
44 clknet_4_2__leaf_h1\/gclk5:12 h1/ff42:CK 1e-06
45 clknet_4_2__leaf_h1\/gclk5:12 h1/ff42:CK 1e-06
46 clknet_4_2__leaf_h1\/gclk5:12 clknet_4_2__leaf_h1\/gclk5:13 0.00439602
47 clknet_4_2__leaf_h1\/gclk5:12 h1/ff42:CK 1e-06
48 clknet_4_2__leaf_h1\/gclk5:13 h1/ff26:CK 1e-06
49 clknet_4_2__leaf_h1\/gclk5:13 h1/ff26:CK 1e-06
50 clknet_4_2__leaf_h1\/gclk5:13 clknet_4_2__leaf_h1\/gclk5:8 0.011544
51 clknet_4_2__leaf_h1\/gclk5:13 h1/ff26:CK 1e-06
52 clknet_4_2__leaf_h1\/gclk5:8 h1/ff66:CK 1e-06
53 clknet_4_2__leaf_h1\/gclk5:14 clknet_4_2__leaf_h1\/gclk5:5 0.00917267
54 clknet_4_2__leaf_h1\/gclk5:5 clkload2:A 1e-06
55 clknet_4_2__leaf_h1\/gclk5:15 clknet_4_2__leaf_h1\/gclk5:6 8.935e-06
56 clknet_4_2__leaf_h1\/gclk5:6 h1/clkbuf_4_2__f_h1\/gclk5:Z 1e-06
*END

*D_NET clknet_4_3__leaf_h1\/gclk5 1.28167
*CONN
*I h1/ff0\/name:CK I *D DFF_X1
*I h1/ff11:CK I *D DFF_X1
*I h1/ff114:CK I *D DFF_X1
*I h1/ff124:CK I *D DFF_X1
*I h1/ff130:CK I *D DFF_X1
*I h1/ff140:CK I *D DFF_X1
*I h1/ff17:CK I *D DFF_X1
*I h1/ff31:CK I *D DFF_X1
*I h1/clkbuf_4_3__f_h1\/gclk5:Z O *D CLKBUF_X3
*I clkload3:A I *D INV_X2
*CAP
1 clknet_4_3__leaf_h1\/gclk5:0 0.105224
2 clknet_4_3__leaf_h1\/gclk5:1 0.226607
3 clknet_4_3__leaf_h1\/gclk5:2 0.206258
4 clknet_4_3__leaf_h1\/gclk5:3 0.105224
5 clknet_4_3__leaf_h1\/gclk5:4 0.0462234
6 clknet_4_3__leaf_h1\/gclk5:5 0.0462234
7 clknet_4_3__leaf_h1\/gclk5:6 0.226607
8 clknet_4_3__leaf_h1\/gclk5:7 0.0793502
9 clknet_4_3__leaf_h1\/gclk5:8 0.0361707
10 clknet_4_3__leaf_h1\/gclk5:9 0.0197295
11 clknet_4_3__leaf_h1\/gclk5:10 0.184048
*RES
1 clknet_4_3__leaf_h1\/gclk5:0 clknet_4_3__leaf_h1\/gclk5:1 0.0100072
2 clknet_4_3__leaf_h1\/gclk5:0 h1/ff31:CK 1e-06
3 clknet_4_3__leaf_h1\/gclk5:0 h1/ff31:CK 1e-06
4 clknet_4_3__leaf_h1\/gclk5:1 h1/ff17:CK 1e-06
5 clknet_4_3__leaf_h1\/gclk5:1 h1/ff17:CK 1e-06
6 clknet_4_3__leaf_h1\/gclk5:1 clknet_4_3__leaf_h1\/gclk5:6 0.011544
7 clknet_4_3__leaf_h1\/gclk5:1 h1/ff17:CK 1e-06
8 clknet_4_3__leaf_h1\/gclk5:6 h1/ff124:CK 1e-06
9 clknet_4_3__leaf_h1\/gclk5:6 h1/ff124:CK 1e-06
10 clknet_4_3__leaf_h1\/gclk5:2 clknet_4_3__leaf_h1\/gclk5:10 0.0140047
11 clknet_4_3__leaf_h1\/gclk5:2 h1/ff130:CK 1e-06
12 clknet_4_3__leaf_h1\/gclk5:2 h1/ff130:CK 1e-06
13 clknet_4_3__leaf_h1\/gclk5:3 clknet_4_3__leaf_h1\/gclk5:2 0.00561118
14 clknet_4_3__leaf_h1\/gclk5:3 h1/ff114:CK 1e-06
15 clknet_4_3__leaf_h1\/gclk5:3 h1/ff114:CK 1e-06
16 clknet_4_3__leaf_h1\/gclk5:2 h1/ff130:CK 1e-06
17 clknet_4_3__leaf_h1\/gclk5:4 clknet_4_3__leaf_h1\/gclk5:3 0.00439602
18 clknet_4_3__leaf_h1\/gclk5:4 h1/ff0\/name:CK 1e-06
19 clknet_4_3__leaf_h1\/gclk5:4 h1/ff0\/name:CK 1e-06
20 clknet_4_3__leaf_h1\/gclk5:3 h1/ff114:CK 1e-06
21 clknet_4_3__leaf_h1\/gclk5:5 clknet_4_3__leaf_h1\/gclk5:6 0.00439602
22 clknet_4_3__leaf_h1\/gclk5:5 h1/ff140:CK 1e-06
23 clknet_4_3__leaf_h1\/gclk5:5 h1/ff140:CK 1e-06
24 clknet_4_3__leaf_h1\/gclk5:6 h1/ff124:CK 1e-06
25 clknet_4_3__leaf_h1\/gclk5:6 clknet_4_3__leaf_h1\/gclk5:7 0.00561118
26 clknet_4_3__leaf_h1\/gclk5:6 h1/ff124:CK 1e-06
27 clknet_4_3__leaf_h1\/gclk5:7 h1/ff11:CK 1e-06
28 clknet_4_3__leaf_h1\/gclk5:7 h1/ff11:CK 1e-06
29 clknet_4_3__leaf_h1\/gclk5:7 clknet_4_3__leaf_h1\/gclk5:10 0.00193532
30 clknet_4_3__leaf_h1\/gclk5:7 h1/ff11:CK 1e-06
31 clknet_4_3__leaf_h1\/gclk5:8 clknet_4_3__leaf_h1\/gclk5:9 0.00187635
32 clknet_4_3__leaf_h1\/gclk5:8 clkload3:A 1e-06
33 clknet_4_3__leaf_h1\/gclk5:8 clkload3:A 1e-06
34 clknet_4_3__leaf_h1\/gclk5:9 h1/clkbuf_4_3__f_h1\/gclk5:Z 1e-06
35 clknet_4_3__leaf_h1\/gclk5:9 h1/clkbuf_4_3__f_h1\/gclk5:Z 1e-06