*SPEF "ieee 1481-1999"
*DESIGN "gcd"
*DATE "11:11:11 Fri 11 11, 1111"
*VENDOR "OpenRCX"
*PROGRAM "Parallel Extraction"
*VERSION "1.0"
*DESIGN_FLOW "NAME_SCOPE LOCAL" "PIN_CAP NONE"
*DIVIDER /
*DELIMITER :
*BUS_DELIMITER []
*T_UNIT 1 NS
*C_UNIT 1 PF
*R_UNIT 1 OHM
*L_UNIT 1 HENRY

*NAME_MAP
*1 clk
*2 req_msg[0]
*3 req_msg[10]
*4 req_msg[11]
*5 req_msg[12]
*6 req_msg[13]
*7 req_msg[14]
*8 req_msg[15]
*9 req_msg[16]
*10 req_msg[17]
*11 req_msg[18]
*12 req_msg[19]
*13 req_msg[1]
*14 req_msg[20]
*15 req_msg[21]
*16 req_msg[22]
*17 req_msg[23]
*18 req_msg[24]
*19 req_msg[25]
*20 req_msg[26]
*21 req_msg[27]
*22 req_msg[28]
*23 req_msg[29]
*24 req_msg[2]
*25 req_msg[30]
*26 req_msg[31]
*27 req_msg[3]
*28 req_msg[4]
*29 req_msg[5]
*30 req_msg[6]
*31 req_msg[7]
*32 req_msg[8]
*33 req_msg[9]
*34 req_rdy
*35 req_val
*36 reset
*37 resp_msg[0]
*38 resp_msg[10]
*39 resp_msg[11]
*40 resp_msg[12]
*41 resp_msg[13]
*42 resp_msg[14]
*43 resp_msg[15]
*44 resp_msg[1]
*45 resp_msg[2]
*46 resp_msg[3]
*47 resp_msg[4]
*48 resp_msg[5]
*49 resp_msg[6]
*50 resp_msg[7]
*51 resp_msg[8]
*52 resp_msg[9]
*53 resp_rdy
*54 resp_val
*57 _000_
*58 _001_
*59 _002_
*60 _003_
*61 _004_
*62 _005_
*63 _006_
*64 _007_
*65 _008_
*66 _009_
*67 _010_
*68 _011_
*69 _012_
*70 _013_
*71 _014_
*72 _015_
*73 _016_
*74 _017_
*75 _018_
*76 _019_
*77 _020_
*78 _021_
*79 _022_
*80 _023_
*81 _024_
*82 _025_
*83 _026_
*84 _027_
*85 _028_
*86 _029_
*87 _030_
*88 _031_
*89 _032_
*90 _033_
*91 _034_
*92 _035_
*93 _036_
*94 _037_
*95 _038_
*96 _039_
*97 _040_
*98 _041_
*99 _042_
*100 _043_
*101 _044_
*102 _045_
*103 _046_
*104 _047_
*105 _048_
*106 _049_
*107 _050_
*108 _051_
*109 _052_
*110 _053_
*111 _054_
*112 _055_
*113 _056_
*114 _057_
*115 _058_
*116 _059_
*117 _060_
*118 _061_
*119 _062_
*120 _063_
*121 _064_
*122 _065_
*123 _066_
*124 _067_
*125 _068_
*126 _069_
*127 _070_
*128 _071_
*129 _072_
*130 _073_
*131 _074_
*132 _075_
*133 _076_
*134 _077_
*135 _078_
*136 _079_
*137 _080_
*138 _081_
*139 _082_
*140 _083_
*141 _084_
*142 _085_
*143 _086_
*144 _087_
*145 _088_
*146 _089_
*147 _090_
*148 _091_
*149 _092_
*150 _093_
*151 _094_
*152 _095_
*153 _096_
*154 _097_
*155 _098_
*156 _099_
*157 _100_
*158 _101_
*159 _102_
*160 _103_
*161 _104_
*162 _105_
*163 _106_
*164 _107_
*165 _108_
*166 _109_
*167 _110_
*168 _111_
*169 _112_
*170 _113_
*171 _114_
*172 _115_
*173 _116_
*174 _117_
*175 _118_
*176 _119_
*177 _120_
*178 _121_
*179 _122_
*180 _123_
*181 _124_
*182 _125_
*183 _126_
*184 _127_
*185 _128_
*186 _129_
*187 _130_
*188 _131_
*189 _132_
*190 _133_
*191 _134_
*192 _135_
*193 _136_
*194 _137_
*195 _138_
*196 _139_
*197 _140_
*198 _141_
*199 _142_
*200 _143_
*201 _144_
*202 _145_
*203 _146_
*204 _147_
*205 _148_
*206 _149_
*207 _150_
*208 _151_
*209 _152_
*210 _153_
*211 _154_
*212 _155_
*213 _156_
*214 _157_
*215 _158_
*216 _159_
*217 _160_
*218 _161_
*219 _162_
*220 _163_
*221 _164_
*222 _165_
*223 _166_
*224 _167_
*225 _168_
*226 _169_
*227 _170_
*228 _171_
*229 _172_
*230 _173_
*231 _174_
*232 _175_
*233 _176_
*234 _177_
*235 _178_
*236 _179_
*237 _180_
*238 _181_
*239 _182_
*240 _183_
*241 _184_
*242 _185_
*243 _186_
*244 _187_
*245 _188_
*246 _189_
*247 _190_
*248 _191_
*249 _192_
*250 _193_
*251 _194_
*252 _195_
*253 _196_
*254 _197_
*255 _198_
*256 _199_
*257 _200_
*258 _201_
*259 _202_
*260 _203_
*261 _204_
*262 _205_
*263 _206_
*264 _207_
*265 _208_
*266 _209_
*267 _210_
*268 _211_
*269 _212_
*270 _213_
*271 _214_
*272 _215_
*273 _216_
*274 _217_
*275 _218_
*276 _219_
*277 _220_
*278 _221_
*279 _222_
*280 _223_
*281 _224_
*282 _225_
*283 _226_
*284 _227_
*285 _228_
*286 _229_
*287 _230_
*288 _231_
*289 _232_
*290 _233_
*291 _234_
*292 _235_
*293 _236_
*294 _237_
*295 _238_
*296 _239_
*297 _240_
*298 _241_
*299 _242_
*300 _243_
*301 _244_
*302 _245_
*303 _246_
*304 _247_
*305 _248_
*306 _249_
*307 _250_
*308 _251_
*309 _252_
*310 _253_
*311 _254_
*312 ctrl.state.out\[1\]
*313 ctrl.state.out\[2\]
*314 dpath.a_lt_b\$in0\[0\]
*315 dpath.a_lt_b\$in0\[10\]
*316 dpath.a_lt_b\$in0\[11\]
*317 dpath.a_lt_b\$in0\[12\]
*318 dpath.a_lt_b\$in0\[13\]
*319 dpath.a_lt_b\$in0\[14\]
*320 dpath.a_lt_b\$in0\[15\]
*321 dpath.a_lt_b\$in0\[1\]
*322 dpath.a_lt_b\$in0\[2\]
*323 dpath.a_lt_b\$in0\[3\]
*324 dpath.a_lt_b\$in0\[4\]
*325 dpath.a_lt_b\$in0\[5\]
*326 dpath.a_lt_b\$in0\[6\]
*327 dpath.a_lt_b\$in0\[7\]
*328 dpath.a_lt_b\$in0\[8\]
*329 dpath.a_lt_b\$in0\[9\]
*330 dpath.a_lt_b\$in1\[0\]
*331 dpath.a_lt_b\$in1\[10\]
*332 dpath.a_lt_b\$in1\[11\]
*333 dpath.a_lt_b\$in1\[12\]
*334 dpath.a_lt_b\$in1\[13\]
*335 dpath.a_lt_b\$in1\[14\]
*336 dpath.a_lt_b\$in1\[15\]
*337 dpath.a_lt_b\$in1\[1\]
*338 dpath.a_lt_b\$in1\[2\]
*339 dpath.a_lt_b\$in1\[3\]
*340 dpath.a_lt_b\$in1\[4\]
*341 dpath.a_lt_b\$in1\[5\]
*342 dpath.a_lt_b\$in1\[6\]
*343 dpath.a_lt_b\$in1\[7\]
*344 dpath.a_lt_b\$in1\[8\]
*345 dpath.a_lt_b\$in1\[9\]
*346 clknet_0_clk
*347 clknet_1_0_0_clk
*348 clknet_1_1_0_clk
*349 clknet_2_0_0_clk
*350 clknet_2_1_0_clk
*351 clknet_2_2_0_clk
*352 clknet_2_3_0_clk
*353 _255_
*354 _256_
*355 _257_
*356 _258_
*357 _259_
*358 _260_
*359 _261_
*360 _262_
*361 _263_
*362 _264_
*363 _265_
*364 _266_
*365 _267_
*366 _268_
*367 _269_
*368 _270_
*369 _271_
*370 _272_
*371 _273_
*372 _274_
*373 _275_
*374 _276_
*375 _277_
*376 _278_
*377 _279_
*378 _280_
*379 _281_
*380 _282_
*381 _283_
*382 _284_
*383 _285_
*384 _286_
*385 _287_
*386 _288_
*387 _289_
*388 _290_
*389 _291_
*390 _292_
*391 _293_
*392 _294_
*393 _295_
*394 _296_
*395 _297_
*396 _298_
*397 _299_
*398 _300_
*399 _301_
*400 _302_
*401 _303_
*402 _304_
*403 _305_
*404 _306_
*405 _307_
*406 _308_
*407 _309_
*408 _310_
*409 _311_
*410 _312_
*411 _313_
*412 _314_
*413 _315_
*414 _316_
*415 _317_
*416 _318_
*417 _319_
*418 _320_
*419 _321_
*420 _322_
*421 _323_
*422 _324_
*423 _325_
*424 _326_
*425 _327_
*426 _328_
*427 _329_
*428 _330_
*429 _331_
*430 _332_
*431 _333_
*432 _334_
*433 _335_
*434 _336_
*435 _337_
*436 _338_
*437 _339_
*438 _340_
*439 _341_
*440 _342_
*441 _343_
*442 _344_
*443 _345_
*444 _346_
*445 _347_
*446 _348_
*447 _349_
*448 _350_
*449 _351_
*450 _352_
*451 _353_
*452 _354_
*453 _355_
*454 _356_
*455 _357_
*456 _358_
*457 _359_
*458 _360_
*459 _361_
*460 _362_
*461 _363_
*462 _364_
*463 _365_
*464 _366_
*465 _367_
*466 _368_
*467 _369_
*468 _370_
*469 _371_
*470 _372_
*471 _373_
*472 _374_
*473 _375_
*474 _376_
*475 _377_
*476 _378_
*477 _379_
*478 _380_
*479 _381_
*480 _382_
*481 _383_
*482 _384_
*483 _385_
*484 _386_
*485 _387_
*486 _388_
*487 _389_
*488 _390_
*489 _391_
*490 _392_
*491 _393_
*492 _394_
*493 _395_
*494 _396_
*495 _397_
*496 _398_
*497 _399_
*498 _400_
*499 _401_
*500 _402_
*501 _403_
*502 _404_
*503 _405_
*504 _406_
*505 _407_
*506 _408_
*507 _409_
*508 _410_
*509 _411_
*510 _412_
*511 _413_
*512 _414_
*513 _415_
*514 _416_
*515 _417_
*516 _418_
*517 _419_
*518 _420_
*519 _421_
*520 _422_
*521 _423_
*522 _424_
*523 _425_
*524 _426_
*525 _427_
*526 _428_
*527 _429_
*528 _430_
*529 _431_
*530 _432_
*531 _433_
*532 _434_
*533 _435_
*534 _436_
*535 _437_
*536 _438_
*537 _439_
*538 _440_
*539 _441_
*540 _442_
*541 _443_
*542 _444_
*543 _445_
*544 _446_
*545 _447_
*546 _448_
*547 _449_
*548 _450_
*549 _451_
*550 _452_
*551 _453_
*552 _454_
*553 _455_
*554 _456_
*555 _457_
*556 _458_
*557 _459_
*558 _460_
*559 _461_
*560 _462_
*561 _463_
*562 _464_
*563 _465_
*564 _466_
*565 _467_
*566 _468_
*567 _469_
*568 _470_
*569 _471_
*570 _472_
*571 _473_
*572 _474_
*573 _475_
*574 _476_
*575 _477_
*576 _478_
*577 _479_
*578 _480_
*579 _481_
*580 _482_
*581 _483_
*582 _484_
*583 _485_
*584 _486_
*585 _487_
*586 _488_
*587 _489_
*588 _490_
*589 _491_
*590 _492_
*591 _493_
*592 _494_
*593 _495_
*594 _496_
*595 _497_
*596 _498_
*597 _499_
*598 _500_
*599 _501_
*600 _502_
*601 _503_
*602 _504_
*603 _505_
*604 _506_
*605 _507_
*606 _508_
*607 _509_
*608 _510_
*609 _511_
*610 _512_
*611 _513_
*612 _514_
*613 _515_
*614 _516_
*615 _517_
*616 _518_
*617 _519_
*618 _520_
*619 _521_
*620 _522_
*621 _523_
*622 _524_
*623 _525_
*624 _526_
*625 PHY_0
*626 PHY_1
*627 PHY_2
*628 PHY_3
*629 PHY_4
*630 PHY_5
*631 PHY_6
*632 PHY_7
*633 PHY_8
*634 PHY_9
*635 PHY_10
*636 PHY_11
*637 PHY_12
*638 PHY_13
*639 PHY_14
*640 PHY_15
*641 PHY_16
*642 PHY_17
*643 PHY_18
*644 PHY_19
*645 PHY_20
*646 PHY_21
*647 PHY_22
*648 PHY_23
*649 PHY_24
*650 PHY_25
*651 PHY_26
*652 PHY_27
*653 PHY_28
*654 PHY_29
*655 PHY_30
*656 PHY_31
*657 PHY_32
*658 PHY_33
*659 PHY_34
*660 PHY_35
*661 PHY_36
*662 PHY_37
*663 PHY_38
*664 PHY_39
*665 PHY_40
*666 PHY_41
*667 PHY_42
*668 PHY_43
*669 PHY_44
*670 PHY_45
*671 PHY_46
*672 PHY_47
*673 PHY_48
*674 PHY_49
*675 PHY_50
*676 PHY_51
*677 PHY_52
*678 PHY_53
*679 PHY_54
*680 PHY_55
*681 PHY_56
*682 PHY_57
*683 PHY_58
*684 PHY_59
*685 PHY_60
*686 PHY_61
*687 PHY_62
*688 PHY_63
*689 PHY_64
*690 PHY_65
*691 PHY_66
*692 PHY_67
*693 PHY_68
*694 PHY_69
*695 PHY_70
*696 PHY_71
*697 PHY_72
*698 PHY_73
*699 PHY_74
*700 PHY_75
*701 PHY_76
*702 PHY_77
*703 PHY_78
*704 PHY_79
*705 PHY_80
*706 PHY_81
*707 PHY_82
*708 PHY_83
*709 PHY_84
*710 PHY_85
*711 PHY_86
*712 PHY_87
*713 PHY_88
*714 PHY_89
*715 PHY_90
*716 PHY_91
*717 PHY_92
*718 PHY_93
*719 PHY_94
*720 PHY_95
*721 PHY_96
*722 PHY_97
*723 PHY_98
*724 PHY_99
*725 PHY_100
*726 PHY_101
*727 PHY_102
*728 PHY_103
*729 PHY_104
*730 PHY_105
*731 PHY_106
*732 PHY_107
*733 PHY_108
*734 PHY_109
*735 PHY_110
*736 PHY_111
*737 PHY_112
*738 PHY_113
*739 clkbuf_0_clk
*740 clkbuf_1_0_0_clk
*741 clkbuf_1_1_0_clk
*742 clkbuf_2_0_0_clk
*743 clkbuf_2_1_0_clk
*744 clkbuf_2_2_0_clk
*745 clkbuf_2_3_0_clk
*746 FILLER_0_1
*747 FILLER_0_33
*748 FILLER_0_65
*749 FILLER_0_97
*750 FILLER_0_129
*751 FILLER_0_161
*752 FILLER_0_193
*753 FILLER_0_225
*754 FILLER_0_257
*755 FILLER_0_289
*756 FILLER_0_321
*757 FILLER_0_353
*758 FILLER_0_385
*759 FILLER_0_417
*760 FILLER_1_1
*761 FILLER_1_33
*762 FILLER_1_65
*763 FILLER_1_97
*764 FILLER_1_129
*765 FILLER_1_161
*766 FILLER_1_193
*767 FILLER_1_225
*768 FILLER_1_257
*769 FILLER_1_289
*770 FILLER_1_321
*771 FILLER_1_353
*772 FILLER_1_385
*773 FILLER_1_417
*774 FILLER_2_1
*775 FILLER_2_4
*776 FILLER_2_36
*777 FILLER_2_68
*778 FILLER_2_100
*779 FILLER_2_132
*780 FILLER_2_164
*781 FILLER_2_196
*782 FILLER_2_228
*783 FILLER_2_260
*784 FILLER_2_292
*785 FILLER_2_324
*786 FILLER_2_356
*787 FILLER_2_388
*788 FILLER_2_420
*789 FILLER_3_1
*790 FILLER_3_33
*791 FILLER_3_65
*792 FILLER_3_97
*793 FILLER_3_129
*794 FILLER_3_161
*795 FILLER_3_193
*796 FILLER_3_225
*797 FILLER_3_257
*798 FILLER_3_289
*799 FILLER_3_321
*800 FILLER_3_353
*801 FILLER_3_385
*802 FILLER_3_417
*803 FILLER_4_1
*804 FILLER_4_33
*805 FILLER_4_65
*806 FILLER_4_97
*807 FILLER_4_129
*808 FILLER_4_161
*809 FILLER_4_193
*810 FILLER_4_225
*811 FILLER_4_257
*812 FILLER_4_289
*813 FILLER_4_321
*814 FILLER_4_353
*815 FILLER_4_385
*816 FILLER_4_417
*817 FILLER_5_1
*818 FILLER_5_33
*819 FILLER_5_65
*820 FILLER_5_97
*821 FILLER_5_129
*822 FILLER_5_161
*823 FILLER_5_193
*824 FILLER_5_225
*825 FILLER_5_257
*826 FILLER_5_289
*827 FILLER_5_321
*828 FILLER_5_353
*829 FILLER_5_385
*830 FILLER_5_417
*831 FILLER_6_1
*832 FILLER_6_33
*833 FILLER_6_65
*834 FILLER_6_97
*835 FILLER_6_129
*836 FILLER_6_161
*837 FILLER_6_193
*838 FILLER_6_225
*839 FILLER_6_257
*840 FILLER_6_289
*841 FILLER_6_321
*842 FILLER_6_353
*843 FILLER_6_385
*844 FILLER_6_417
*845 FILLER_7_1
*846 FILLER_7_33
*847 FILLER_7_65
*848 FILLER_7_97
*849 FILLER_7_129
*850 FILLER_7_161
*851 FILLER_7_193
*852 FILLER_7_225
*853 FILLER_7_257
*854 FILLER_7_289
*855 FILLER_7_321
*856 FILLER_7_353
*857 FILLER_7_385
*858 FILLER_7_417
*859 FILLER_8_1
*860 FILLER_8_33
*861 FILLER_8_65
*862 FILLER_8_97
*863 FILLER_8_129
*864 FILLER_8_161
*865 FILLER_8_193
*866 FILLER_8_225
*867 FILLER_8_257
*868 FILLER_8_289
*869 FILLER_8_321
*870 FILLER_8_353
*871 FILLER_8_385
*872 FILLER_8_417
*873 FILLER_9_1
*874 FILLER_9_33
*875 FILLER_9_65
*876 FILLER_9_97
*877 FILLER_9_129
*878 FILLER_9_161
*879 FILLER_9_193
*880 FILLER_9_225
*881 FILLER_9_257
*882 FILLER_9_289
*883 FILLER_9_321
*884 FILLER_9_353
*885 FILLER_9_385
*886 FILLER_9_417
*887 FILLER_10_1
*888 FILLER_10_33
*889 FILLER_10_65
*890 FILLER_10_97
*891 FILLER_10_129
*892 FILLER_10_161
*893 FILLER_10_193
*894 FILLER_10_225
*895 FILLER_10_257
*896 FILLER_10_289
*897 FILLER_10_321
*898 FILLER_10_353
*899 FILLER_10_385
*900 FILLER_10_417
*901 FILLER_11_1
*902 FILLER_11_33
*903 FILLER_11_65
*904 FILLER_11_97
*905 FILLER_11_129
*906 FILLER_11_161
*907 FILLER_11_193
*908 FILLER_11_225
*909 FILLER_11_257
*910 FILLER_11_289
*911 FILLER_11_321
*912 FILLER_11_353
*913 FILLER_11_385
*914 FILLER_11_417
*915 FILLER_12_1
*916 FILLER_12_33
*917 FILLER_12_65
*918 FILLER_12_97
*919 FILLER_12_129
*920 FILLER_12_161
*921 FILLER_12_193
*922 FILLER_12_225
*923 FILLER_12_257
*924 FILLER_12_289
*925 FILLER_12_321
*926 FILLER_12_353
*927 FILLER_12_385
*928 FILLER_12_417
*929 FILLER_13_1
*930 FILLER_13_33
*931 FILLER_13_65
*932 FILLER_13_97
*933 FILLER_13_129
*934 FILLER_13_161
*935 FILLER_13_162
*936 FILLER_13_165
*937 FILLER_13_197
*938 FILLER_13_201
*939 FILLER_13_202
*940 FILLER_13_220
*941 FILLER_13_221
*942 FILLER_13_225
*943 FILLER_13_241
*944 FILLER_13_245
*945 FILLER_13_263
*946 FILLER_13_295
*947 FILLER_13_327
*948 FILLER_13_359
*949 FILLER_13_391
*950 FILLER_13_407
*951 FILLER_13_415
*952 FILLER_13_419
*953 FILLER_13_420
*954 FILLER_14_1
*955 FILLER_14_33
*956 FILLER_14_65
*957 FILLER_14_97
*958 FILLER_14_129
*959 FILLER_14_133
*960 FILLER_14_134
*961 FILLER_14_135
*962 FILLER_14_139
*963 FILLER_14_140
*964 FILLER_14_147
*965 FILLER_14_151
*966 FILLER_14_169
*967 FILLER_14_170
*968 FILLER_14_177
*969 FILLER_14_178
*970 FILLER_14_196
*971 FILLER_14_206
*972 FILLER_14_207
*973 FILLER_14_212
*974 FILLER_14_228
*975 FILLER_14_232
*976 FILLER_14_233
*977 FILLER_14_238
*978 FILLER_14_239
*979 FILLER_14_247
*980 FILLER_14_251
*981 FILLER_14_252
*982 FILLER_14_253
*983 FILLER_14_258
*984 FILLER_14_290
*985 FILLER_14_294
*986 FILLER_14_298
*987 FILLER_14_299
*988 FILLER_14_317
*989 FILLER_14_349
*990 FILLER_14_381
*991 FILLER_14_413
*992 FILLER_15_1
*993 FILLER_15_33
*994 FILLER_15_65
*995 FILLER_15_97
*996 FILLER_15_101
*997 FILLER_15_102
*998 FILLER_15_103
*999 FILLER_15_107
*1000 FILLER_15_123
*1001 FILLER_15_131
*1002 FILLER_15_135
*1003 FILLER_15_136
*1004 FILLER_15_140
*1005 FILLER_15_144
*1006 FILLER_15_145
*1007 FILLER_15_153
*1008 FILLER_15_154
*1009 FILLER_15_158
*1010 FILLER_15_159
*1011 FILLER_15_163
*1012 FILLER_15_167
*1013 FILLER_15_173
*1014 FILLER_15_174
*1015 FILLER_15_177
*1016 FILLER_15_193
*1017 FILLER_15_201
*1018 FILLER_15_205
*1019 FILLER_15_206
*1020 FILLER_15_209
*1021 FILLER_15_225
*1022 FILLER_15_229
*1023 FILLER_15_235
*1024 FILLER_15_243
*1025 FILLER_15_251
*1026 FILLER_15_255
*1027 FILLER_15_261
*1028 FILLER_15_262
*1029 FILLER_15_266
*1030 FILLER_15_282
*1031 FILLER_15_286
*1032 FILLER_15_287
*1033 FILLER_15_291
*1034 FILLER_15_292
*1035 FILLER_15_296
*1036 FILLER_15_297
*1037 FILLER_15_298
*1038 FILLER_15_303
*1039 FILLER_15_304
*1040 FILLER_15_309
*1041 FILLER_15_310
*1042 FILLER_15_313
*1043 FILLER_15_345
*1044 FILLER_15_377
*1045 FILLER_15_409
*1046 FILLER_15_417
*1047 FILLER_16_1
*1048 FILLER_16_33
*1049 FILLER_16_65
*1050 FILLER_16_97
*1051 FILLER_16_105
*1052 FILLER_16_123
*1053 FILLER_16_124
*1054 FILLER_16_127
*1055 FILLER_16_143
*1056 FILLER_16_151
*1057 FILLER_16_152
*1058 FILLER_16_157
*1059 FILLER_16_161
*1060 FILLER_16_167
*1061 FILLER_16_199
*1062 FILLER_16_231
*1063 FILLER_16_239
*1064 FILLER_16_243
*1065 FILLER_16_244
*1066 FILLER_16_245
*1067 FILLER_16_259
*1068 FILLER_16_260
*1069 FILLER_16_266
*1070 FILLER_16_270
*1071 FILLER_16_276
*1072 FILLER_16_284
*1073 FILLER_16_288
*1074 FILLER_16_289
*1075 FILLER_16_290
*1076 FILLER_16_308
*1077 FILLER_16_340
*1078 FILLER_16_372
*1079 FILLER_16_404
*1080 FILLER_16_420
*1081 FILLER_17_1
*1082 FILLER_17_33
*1083 FILLER_17_65
*1084 FILLER_17_97
*1085 FILLER_17_105
*1086 FILLER_17_109
*1087 FILLER_17_110
*1088 FILLER_17_116
*1089 FILLER_17_117
*1090 FILLER_17_122
*1091 FILLER_17_138
*1092 FILLER_17_146
*1093 FILLER_17_150
*1094 FILLER_17_151
*1095 FILLER_17_157
*1096 FILLER_17_189
*1097 FILLER_17_221
*1098 FILLER_17_237
*1099 FILLER_17_245
*1100 FILLER_17_249
*1101 FILLER_17_257
*1102 FILLER_17_273
*1103 FILLER_17_281
*1104 FILLER_17_287
*1105 FILLER_17_299
*1106 FILLER_17_300
*1107 FILLER_17_304
*1108 FILLER_17_336
*1109 FILLER_17_368
*1110 FILLER_17_400
*1111 FILLER_17_416
*1112 FILLER_17_420
*1113 FILLER_18_1
*1114 FILLER_18_33
*1115 FILLER_18_65
*1116 FILLER_18_97
*1117 FILLER_18_105
*1118 FILLER_18_109
*1119 FILLER_18_110
*1120 FILLER_18_115
*1121 FILLER_18_147
*1122 FILLER_18_179
*1123 FILLER_18_211
*1124 FILLER_18_243
*1125 FILLER_18_275
*1126 FILLER_18_291
*1127 FILLER_18_299
*1128 FILLER_18_307
*1129 FILLER_18_311
*1130 FILLER_18_312
*1131 FILLER_18_313
*1132 FILLER_18_317
*1133 FILLER_18_318
*1134 FILLER_18_336
*1135 FILLER_18_368
*1136 FILLER_18_400
*1137 FILLER_18_416
*1138 FILLER_18_420
*1139 FILLER_19_1
*1140 FILLER_19_33
*1141 FILLER_19_65
*1142 FILLER_19_81
*1143 FILLER_19_89
*1144 FILLER_19_93
*1145 FILLER_19_98
*1146 FILLER_19_99
*1147 FILLER_19_106
*1148 FILLER_19_107
*1149 FILLER_19_113
*1150 FILLER_19_114
*1151 FILLER_19_120
*1152 FILLER_19_152
*1153 FILLER_19_160
*1154 FILLER_19_166
*1155 FILLER_19_198
*1156 FILLER_19_206
*1157 FILLER_19_207
*1158 FILLER_19_212
*1159 FILLER_19_213
*1160 FILLER_19_231
*1161 FILLER_19_263
*1162 FILLER_19_295
*1163 FILLER_19_303
*1164 FILLER_19_307
*1165 FILLER_19_308
*1166 FILLER_19_313
*1167 FILLER_19_326
*1168 FILLER_19_358
*1169 FILLER_19_390
*1170 FILLER_19_406
*1171 FILLER_19_414
*1172 FILLER_19_418
*1173 FILLER_19_419
*1174 FILLER_19_420
*1175 FILLER_20_1
*1176 FILLER_20_33
*1177 FILLER_20_65
*1178 FILLER_20_81
*1179 FILLER_20_89
*1180 FILLER_20_90
*1181 FILLER_20_91
*1182 FILLER_20_109
*1183 FILLER_20_141
*1184 FILLER_20_157
*1185 FILLER_20_158
*1186 FILLER_20_159
*1187 FILLER_20_166
*1188 FILLER_20_167
*1189 FILLER_20_174
*1190 FILLER_20_178
*1191 FILLER_20_196
*1192 FILLER_20_197
*1193 FILLER_20_203
*1194 FILLER_20_224
*1195 FILLER_20_256
*1196 FILLER_20_288
*1197 FILLER_20_304
*1198 FILLER_20_305
*1199 FILLER_20_306
*1200 FILLER_20_312
*1201 FILLER_20_344
*1202 FILLER_20_376
*1203 FILLER_20_408
*1204 FILLER_20_416
*1205 FILLER_20_420
*1206 FILLER_21_1
*1207 FILLER_21_33
*1208 FILLER_21_65
*1209 FILLER_21_97
*1210 FILLER_21_129
*1211 FILLER_21_130
*1212 FILLER_21_131
*1213 FILLER_21_139
*1214 FILLER_21_140
*1215 FILLER_21_144
*1216 FILLER_21_160
*1217 FILLER_21_166
*1218 FILLER_21_167
*1219 FILLER_21_170
*1220 FILLER_21_180
*1221 FILLER_21_212
*1222 FILLER_21_221
*1223 FILLER_21_225
*1224 FILLER_21_226
*1225 FILLER_21_232
*1226 FILLER_21_248
*1227 FILLER_21_252
*1228 FILLER_21_253
*1229 FILLER_21_254
*1230 FILLER_21_258
*1231 FILLER_21_259
*1232 FILLER_21_277
*1233 FILLER_21_285
*1234 FILLER_21_289
*1235 FILLER_21_293
*1236 FILLER_21_325
*1237 FILLER_21_357
*1238 FILLER_21_389
*1239 FILLER_22_1
*1240 FILLER_22_33
*1241 FILLER_22_65
*1242 FILLER_22_97
*1243 FILLER_22_113
*1244 FILLER_22_117
*1245 FILLER_22_118
*1246 FILLER_22_119
*1247 FILLER_22_129
*1248 FILLER_22_130
*1249 FILLER_22_134
*1250 FILLER_22_142
*1251 FILLER_22_152
*1252 FILLER_22_153
*1253 FILLER_22_157
*1254 FILLER_22_189
*1255 FILLER_22_205
*1256 FILLER_22_219
*1257 FILLER_22_220
*1258 FILLER_22_227
*1259 FILLER_22_243
*1260 FILLER_22_251
*1261 FILLER_22_252
*1262 FILLER_22_255
*1263 FILLER_22_256
*1264 FILLER_22_262
*1265 FILLER_22_263
*1266 FILLER_22_270
*1267 FILLER_22_271
*1268 FILLER_22_277
*1269 FILLER_22_309
*1270 FILLER_22_341
*1271 FILLER_22_373
*1272 FILLER_22_405
*1273 FILLER_23_1
*1274 FILLER_23_33
*1275 FILLER_23_65
*1276 FILLER_23_97
*1277 FILLER_23_113
*1278 FILLER_23_117
*1279 FILLER_23_118
*1280 FILLER_23_119
*1281 FILLER_23_126
*1282 FILLER_23_158
*1283 FILLER_23_190
*1284 FILLER_23_206
*1285 FILLER_23_209
*1286 FILLER_23_225
*1287 FILLER_23_226
*1288 FILLER_23_227
*1289 FILLER_23_232
*1290 FILLER_23_248
*1291 FILLER_23_256
*1292 FILLER_23_260
*1293 FILLER_23_261
*1294 FILLER_23_265
*1295 FILLER_23_275
*1296 FILLER_23_291
*1297 FILLER_23_299
*1298 FILLER_23_303
*1299 FILLER_23_310
*1300 FILLER_23_311
*1301 FILLER_23_329
*1302 FILLER_23_361
*1303 FILLER_23_393
*1304 FILLER_23_409
*1305 FILLER_23_417
*1306 FILLER_24_1
*1307 FILLER_24_33
*1308 FILLER_24_65
*1309 FILLER_24_97
*1310 FILLER_24_101
*1311 FILLER_24_102
*1312 FILLER_24_103
*1313 FILLER_24_121
*1314 FILLER_24_122
*1315 FILLER_24_128
*1316 FILLER_24_160
*1317 FILLER_24_192
*1318 FILLER_24_224
*1319 FILLER_24_256
*1320 FILLER_24_257
*1321 FILLER_24_265
*1322 FILLER_24_297
*1323 FILLER_24_305
*1324 FILLER_24_306
*1325 FILLER_24_311
*1326 FILLER_24_312
*1327 FILLER_24_315
*1328 FILLER_24_316
*1329 FILLER_24_321
*1330 FILLER_24_337
*1331 FILLER_24_345
*1332 FILLER_24_349
*1333 FILLER_24_352
*1334 FILLER_24_384
*1335 FILLER_24_416
*1336 FILLER_24_420
*1337 FILLER_25_1
*1338 FILLER_25_33
*1339 FILLER_25_65
*1340 FILLER_25_97
*1341 FILLER_25_105
*1342 FILLER_25_106
*1343 FILLER_25_107
*1344 FILLER_25_113
*1345 FILLER_25_114
*1346 FILLER_25_119
*1347 FILLER_25_151
*1348 FILLER_25_152
*1349 FILLER_25_153
*1350 FILLER_25_158
*1351 FILLER_25_159
*1352 FILLER_25_163
*1353 FILLER_25_170
*1354 FILLER_25_171
*1355 FILLER_25_175
*1356 FILLER_25_191
*1357 FILLER_25_199
*1358 FILLER_25_200
*1359 FILLER_25_201
*1360 FILLER_25_213
*1361 FILLER_25_214
*1362 FILLER_25_221
*1363 FILLER_25_253
*1364 FILLER_25_285
*1365 FILLER_25_317
*1366 FILLER_25_349
*1367 FILLER_25_381
*1368 FILLER_25_413
*1369 FILLER_26_1
*1370 FILLER_26_33
*1371 FILLER_26_65
*1372 FILLER_26_97
*1373 FILLER_26_129
*1374 FILLER_26_145
*1375 FILLER_26_153
*1376 FILLER_26_154
*1377 FILLER_26_160
*1378 FILLER_26_164
*1379 FILLER_26_165
*1380 FILLER_26_166
*1381 FILLER_26_184
*1382 FILLER_26_200
*1383 FILLER_26_212
*1384 FILLER_26_213
*1385 FILLER_26_214
*1386 FILLER_26_220
*1387 FILLER_26_224
*1388 FILLER_26_234
*1389 FILLER_26_266
*1390 FILLER_26_298
*1391 FILLER_26_320
*1392 FILLER_26_352
*1393 FILLER_26_384
*1394 FILLER_26_416
*1395 FILLER_26_420
*1396 FILLER_27_1
*1397 FILLER_27_33
*1398 FILLER_27_65
*1399 FILLER_27_97
*1400 FILLER_27_129
*1401 FILLER_27_133
*1402 FILLER_27_140
*1403 FILLER_27_156
*1404 FILLER_27_170
*1405 FILLER_27_171
*1406 FILLER_27_174
*1407 FILLER_27_175
*1408 FILLER_27_180
*1409 FILLER_27_196
*1410 FILLER_27_204
*1411 FILLER_27_214
*1412 FILLER_27_246
*1413 FILLER_27_262
*1414 FILLER_27_263
*1415 FILLER_27_264
*1416 FILLER_27_269
*1417 FILLER_27_301
*1418 FILLER_27_302
*1419 FILLER_27_303
*1420 FILLER_27_310
*1421 FILLER_27_311
*1422 FILLER_27_315
*1423 FILLER_27_319
*1424 FILLER_27_337
*1425 FILLER_27_369
*1426 FILLER_27_401
*1427 FILLER_27_417
*1428 FILLER_28_1
*1429 FILLER_28_33
*1430 FILLER_28_65
*1431 FILLER_28_97
*1432 FILLER_28_105
*1433 FILLER_28_106
*1434 FILLER_28_111
*1435 FILLER_28_112
*1436 FILLER_28_116
*1437 FILLER_28_124
*1438 FILLER_28_133
*1439 FILLER_28_140
*1440 FILLER_28_156
*1441 FILLER_28_157
*1442 FILLER_28_161
*1443 FILLER_28_193
*1444 FILLER_28_194
*1445 FILLER_28_195
*1446 FILLER_28_199
*1447 FILLER_28_207
*1448 FILLER_28_211
*1449 FILLER_28_212
*1450 FILLER_28_213
*1451 FILLER_28_219
*1452 FILLER_28_235
*1453 FILLER_28_243
*1454 FILLER_28_244
*1455 FILLER_28_250
*1456 FILLER_28_251
*1457 FILLER_28_252
*1458 FILLER_28_270
*1459 FILLER_28_271
*1460 FILLER_28_278
*1461 FILLER_28_279
*1462 FILLER_28_283
*1463 FILLER_28_284
*1464 FILLER_28_288
*1465 FILLER_28_296
*1466 FILLER_28_301
*1467 FILLER_28_302
*1468 FILLER_28_306
*1469 FILLER_28_314
*1470 FILLER_28_321
*1471 FILLER_28_322
*1472 FILLER_28_325
*1473 FILLER_28_357
*1474 FILLER_28_389
*1475 FILLER_29_1
*1476 FILLER_29_33
*1477 FILLER_29_65
*1478 FILLER_29_97
*1479 FILLER_29_101
*1480 FILLER_29_119
*1481 FILLER_29_123
*1482 FILLER_29_124
*1483 FILLER_29_125
*1484 FILLER_29_128
*1485 FILLER_29_160
*1486 FILLER_29_195
*1487 FILLER_29_196
*1488 FILLER_29_199
*1489 FILLER_29_207
*1490 FILLER_29_211
*1491 FILLER_29_216
*1492 FILLER_29_217
*1493 FILLER_29_225
*1494 FILLER_29_241
*1495 FILLER_29_245
*1496 FILLER_29_251
*1497 FILLER_29_252
*1498 FILLER_29_256
*1499 FILLER_29_260
*1500 FILLER_29_264
*1501 FILLER_29_265
*1502 FILLER_29_272
*1503 FILLER_29_273
*1504 FILLER_29_277
*1505 FILLER_29_309
*1506 FILLER_29_316
*1507 FILLER_29_348
*1508 FILLER_29_380
*1509 FILLER_29_412
*1510 FILLER_29_420
*1511 FILLER_30_1
*1512 FILLER_30_33
*1513 FILLER_30_65
*1514 FILLER_30_97
*1515 FILLER_30_110
*1516 FILLER_30_126
*1517 FILLER_30_134
*1518 FILLER_30_137
*1519 FILLER_30_141
*1520 FILLER_30_145
*1521 FILLER_30_177
*1522 FILLER_30_200
*1523 FILLER_30_208
*1524 FILLER_30_209
*1525 FILLER_30_229
*1526 FILLER_30_261
*1527 FILLER_30_265
*1528 FILLER_30_268
*1529 FILLER_30_300
*1530 FILLER_30_332
*1531 FILLER_30_333
*1532 FILLER_30_337
*1533 FILLER_30_369
*1534 FILLER_30_401
*1535 FILLER_30_417
*1536 FILLER_31_1
*1537 FILLER_31_33
*1538 FILLER_31_65
*1539 FILLER_31_97
*1540 FILLER_31_129
*1541 FILLER_31_150
*1542 FILLER_31_166
*1543 FILLER_31_174
*1544 FILLER_31_184
*1545 FILLER_31_185
*1546 FILLER_31_188
*1547 FILLER_31_204
*1548 FILLER_31_212
*1549 FILLER_31_216
*1550 FILLER_31_222
*1551 FILLER_31_254
*1552 FILLER_31_286
*1553 FILLER_31_318
*1554 FILLER_31_350
*1555 FILLER_31_382
*1556 FILLER_31_414
*1557 FILLER_31_418
*1558 FILLER_31_419
*1559 FILLER_31_420
*1560 FILLER_32_1
*1561 FILLER_32_33
*1562 FILLER_32_65
*1563 FILLER_32_97
*1564 FILLER_32_129
*1565 FILLER_32_139
*1566 FILLER_32_171
*1567 FILLER_32_203
*1568 FILLER_32_211
*1569 FILLER_32_215
*1570 FILLER_32_216
*1571 FILLER_32_217
*1572 FILLER_32_223
*1573 FILLER_32_224
*1574 FILLER_32_230
*1575 FILLER_32_262
*1576 FILLER_32_263
*1577 FILLER_32_264
*1578 FILLER_32_282
*1579 FILLER_32_314
*1580 FILLER_32_318
*1581 FILLER_32_319
*1582 FILLER_32_320
*1583 FILLER_32_338
*1584 FILLER_32_339
*1585 FILLER_32_343
*1586 FILLER_32_375
*1587 FILLER_32_407
*1588 FILLER_32_415
*1589 FILLER_32_419
*1590 FILLER_32_420
*1591 FILLER_33_1
*1592 FILLER_33_33
*1593 FILLER_33_65
*1594 FILLER_33_97
*1595 FILLER_33_105
*1596 FILLER_33_106
*1597 FILLER_33_107
*1598 FILLER_33_110
*1599 FILLER_33_111
*1600 FILLER_33_112
*1601 FILLER_33_118
*1602 FILLER_33_119
*1603 FILLER_33_120
*1604 FILLER_33_126
*1605 FILLER_33_130
*1606 FILLER_33_131
*1607 FILLER_33_132
*1608 FILLER_33_136
*1609 FILLER_33_137
*1610 FILLER_33_143
*1611 FILLER_33_175
*1612 FILLER_33_207
*1613 FILLER_33_239
*1614 FILLER_33_255
*1615 FILLER_33_259
*1616 FILLER_33_267
*1617 FILLER_33_268
*1618 FILLER_33_273
*1619 FILLER_33_274
*1620 FILLER_33_278
*1621 FILLER_33_310
*1622 FILLER_33_314
*1623 FILLER_33_321
*1624 FILLER_33_322
*1625 FILLER_33_323
*1626 FILLER_33_328
*1627 FILLER_33_336
*1628 FILLER_33_340
*1629 FILLER_33_372
*1630 FILLER_33_404
*1631 FILLER_33_420
*1632 FILLER_34_1
*1633 FILLER_34_33
*1634 FILLER_34_65
*1635 FILLER_34_97
*1636 FILLER_34_105
*1637 FILLER_34_109
*1638 FILLER_34_112
*1639 FILLER_34_144
*1640 FILLER_34_152
*1641 FILLER_34_156
*1642 FILLER_34_164
*1643 FILLER_34_168
*1644 FILLER_34_169
*1645 FILLER_34_189
*1646 FILLER_34_221
*1647 FILLER_34_253
*1648 FILLER_34_257
*1649 FILLER_34_264
*1650 FILLER_34_296
*1651 FILLER_34_312
*1652 FILLER_34_316
*1653 FILLER_34_319
*1654 FILLER_34_351
*1655 FILLER_34_383
*1656 FILLER_34_415
*1657 FILLER_34_419
*1658 FILLER_34_420
*1659 FILLER_35_1
*1660 FILLER_35_33
*1661 FILLER_35_65
*1662 FILLER_35_97
*1663 FILLER_35_101
*1664 FILLER_35_119
*1665 FILLER_35_151
*1666 FILLER_35_167
*1667 FILLER_35_174
*1668 FILLER_35_175
*1669 FILLER_35_178
*1670 FILLER_35_194
*1671 FILLER_35_195
*1672 FILLER_35_196
*1673 FILLER_35_201
*1674 FILLER_35_217
*1675 FILLER_35_221
*1676 FILLER_35_228
*1677 FILLER_35_260
*1678 FILLER_35_266
*1679 FILLER_35_298
*1680 FILLER_35_330
*1681 FILLER_35_362
*1682 FILLER_35_394
*1683 FILLER_35_410
*1684 FILLER_35_418
*1685 FILLER_35_419
*1686 FILLER_35_420
*1687 FILLER_36_1
*1688 FILLER_36_33
*1689 FILLER_36_65
*1690 FILLER_36_97
*1691 FILLER_36_105
*1692 FILLER_36_106
*1693 FILLER_36_107
*1694 FILLER_36_112
*1695 FILLER_36_113
*1696 FILLER_36_120
*1697 FILLER_36_152
*1698 FILLER_36_184
*1699 FILLER_36_218
*1700 FILLER_36_219
*1701 FILLER_36_237
*1702 FILLER_36_253
*1703 FILLER_36_254
*1704 FILLER_36_258
*1705 FILLER_36_259
*1706 FILLER_36_260
*1707 FILLER_36_265
*1708 FILLER_36_281
*1709 FILLER_36_285
*1710 FILLER_36_286
*1711 FILLER_36_287
*1712 FILLER_36_293
*1713 FILLER_36_294
*1714 FILLER_36_299
*1715 FILLER_36_300
*1716 FILLER_36_301
*1717 FILLER_36_308
*1718 FILLER_36_316
*1719 FILLER_36_326
*1720 FILLER_36_327
*1721 FILLER_36_345
*1722 FILLER_36_377
*1723 FILLER_36_409
*1724 FILLER_36_417
*1725 FILLER_37_1
*1726 FILLER_37_33
*1727 FILLER_37_65
*1728 FILLER_37_97
*1729 FILLER_37_129
*1730 FILLER_37_161
*1731 FILLER_37_169
*1732 FILLER_37_178
*1733 FILLER_37_179
*1734 FILLER_37_184
*1735 FILLER_37_200
*1736 FILLER_37_208
*1737 FILLER_37_214
*1738 FILLER_37_215
*1739 FILLER_37_222
*1740 FILLER_37_223
*1741 FILLER_37_230
*1742 FILLER_37_246
*1743 FILLER_37_254
*1744 FILLER_37_258
*1745 FILLER_37_259
*1746 FILLER_37_266
*1747 FILLER_37_283
*1748 FILLER_37_284
*1749 FILLER_37_285
*1750 FILLER_37_290
*1751 FILLER_37_291
*1752 FILLER_37_295
*1753 FILLER_37_311
*1754 FILLER_37_318
*1755 FILLER_37_319
*1756 FILLER_37_326
*1757 FILLER_37_327
*1758 FILLER_37_331
*1759 FILLER_37_332
*1760 FILLER_37_335
*1761 FILLER_37_336
*1762 FILLER_37_339
*1763 FILLER_37_355
*1764 FILLER_37_361
*1765 FILLER_37_393
*1766 FILLER_37_409
*1767 FILLER_37_417
*1768 FILLER_38_1
*1769 FILLER_38_33
*1770 FILLER_38_65
*1771 FILLER_38_97
*1772 FILLER_38_110
*1773 FILLER_38_118
*1774 FILLER_38_119
*1775 FILLER_38_125
*1776 FILLER_38_133
*1777 FILLER_38_137
*1778 FILLER_38_138
*1779 FILLER_38_145
*1780 FILLER_38_153
*1781 FILLER_38_154
*1782 FILLER_38_155
*1783 FILLER_38_158
*1784 FILLER_38_166
*1785 FILLER_38_167
*1786 FILLER_38_168
*1787 FILLER_38_172
*1788 FILLER_38_173
*1789 FILLER_38_174
*1790 FILLER_38_177
*1791 FILLER_38_209
*1792 FILLER_38_217
*1793 FILLER_38_235
*1794 FILLER_38_267
*1795 FILLER_38_271
*1796 FILLER_38_272
*1797 FILLER_38_273
*1798 FILLER_38_280
*1799 FILLER_38_312
*1800 FILLER_38_320