*SPEF "ieee 1481-1999"
*DESIGN "blk"
*DATE "11:11:11 Fri 11 11, 1111"
*VENDOR "OpenRCX"
*PROGRAM "Parallel Extraction"
*VERSION "1.0"
*DESIGN_FLOW "NAME_SCOPE LOCAL" "PIN_CAP NONE"
*DIVIDER /
*DELIMITER :
*BUS_DELIMITER []
*T_UNIT 1 NS
*C_UNIT 1 PF
*R_UNIT 1 OHM
*L_UNIT 1 HENRY

*NAME_MAP
*3 DU6_M1uuM2_W170W170_S1020S1020_2
*48 DU6_M1uuM3_W170W170_S680S680_3
*92 DU6_M1uuM5_W170W170_S340S340_3
*193 DU6_M2uuM6_W140W140_S280S280_2
*200 DU6_M2uuM6_W140W140_S490S490_3
*243 DU6_M3uuM5_W140W140_S1680S1680_2
*400 O6_M1oM0_W170W170_S510S510_1
*521 O6_M2oM1_W140W140_S1120S1120_cntxM1_38
*671 O6_M2oM1_W140W140_S1680S1680_cntxM1_40

*PORTS
DU6_M1uuM2_W170W170_S1020S1020_2 O
DU6_M1uuM2_W170W170_S1020S1020_2_BL I
DU6_M1uuM2_W170W170_S1020S1020_3 O
DU6_M1uuM3_W170W170_S680S680_3 O
DU6_M1uuM3_W170W170_S680S680_3_BL I
DU6_M1uuM5_W170W170_S340S340_3 O
DU6_M1uuM5_W170W170_S340S340_3_BL I
DU6_M2uuM6_W140W140_S140S140_2 O
DU6_M2uuM6_W140W140_S280S280_2 O
DU6_M2uuM6_W140W140_S280S280_2_BL I
DU6_M2uuM6_W140W140_S350S350_2 O
DU6_M2uuM6_W140W140_S490S490_3 O
DU6_M2uuM6_W140W140_S490S490_3_BL I
DU6_M3uuM5_W140W140_S1400S1400_2 O
DU6_M3uuM5_W140W140_S1680S1680_2 O
DU6_M3uuM5_W140W140_S1680S1680_2_BL I
O6_M1oM0_W170W170_S510S510_1 O
O6_M1oM0_W170W170_S510S510_1_BL I
O6_M1oM0_W170W170_S510S510_2 O
O6_M2oM1_W140W140_S1120S1120_cntxM1_37 O
O6_M2oM1_W140W140_S1120S1120_cntxM1_38 O
O6_M2oM1_W140W140_S1120S1120_cntxM1_38_BL I
O6_M2oM1_W140W140_S1120S1120_cntxM1_39 O
O6_M2oM1_W140W140_S1680S1680_cntxM1_39 O
O6_M2oM1_W140W140_S1680S1680_cntxM1_40 O
O6_M2oM1_W140W140_S1680S1680_cntxM1_40_BL I
O6_M2oM1_W140W140_S1680S1680_cntxM1_41 O

*D_NET *3 0.00181214
*CONN
*P DU6_M1uuM2_W170W170_S1020S1020_2 O
*P DU6_M1uuM2_W170W170_S1020S1020_2_BL I
*CAP
1 DU6_M1uuM2_W170W170_S1020S1020_2 0.000663058
2 DU6_M1uuM2_W170W170_S1020S1020_2_BL 0.000663058
3 DU6_M1uuM2_W170W170_S1020S1020_2 DU6_M1uuM2_W170W170_S1020S1020_3 0.000486023
*RES
1 DU6_M1uuM2_W170W170_S1020S1020_2_BL DU6_M1uuM2_W170W170_S1020S1020_2 10.1637 
*END

*D_NET *48 0.00131811
*CONN
*P DU6_M1uuM3_W170W170_S680S680_3 O
*P DU6_M1uuM3_W170W170_S680S680_3_BL I
*CAP
1 DU6_M1uuM3_W170W170_S680S680_3 0.000659054
2 DU6_M1uuM3_W170W170_S680S680_3_BL 0.000659054
*RES
1 DU6_M1uuM3_W170W170_S680S680_3_BL DU6_M1uuM3_W170W170_S680S680_3 573.656 
*END

*D_NET *92 0.00131811
*CONN
*P DU6_M1uuM5_W170W170_S340S340_3 O
*P DU6_M1uuM5_W170W170_S340S340_3_BL I
*CAP
1 DU6_M1uuM5_W170W170_S340S340_3 0.000659054
2 DU6_M1uuM5_W170W170_S340S340_3_BL 0.000659054
*RES
1 DU6_M1uuM5_W170W170_S340S340_3_BL DU6_M1uuM5_W170W170_S340S340_3 573.656 
*END

*D_NET *193 0.00106156
*CONN
*P DU6_M2uuM6_W140W140_S280S280_2 O
*P DU6_M2uuM6_W140W140_S280S280_2_BL I
*CAP
1 DU6_M2uuM6_W140W140_S280S280_2 0.000506278
2 DU6_M2uuM6_W140W140_S280S280_2_BL 0.000506278
3 DU6_M2uuM6_W140W140_S280S280_2 DU6_M2uuM6_W140W140_S350S350_2 1.76398e-05
4 DU6_M2uuM6_W140W140_S140S140_2 DU6_M2uuM6_W140W140_S280S280_2 3.13596e-05
*RES
1 DU6_M2uuM6_W140W140_S280S280_2_BL DU6_M2uuM6_W140W140_S280S280_2 0.227617 
*END

*D_NET *200 0.00109015
*CONN
*P DU6_M2uuM6_W140W140_S490S490_3 O
*P DU6_M2uuM6_W140W140_S490S490_3_BL I
*CAP
1 DU6_M2uuM6_W140W140_S490S490_3 0.000545076
2 DU6_M2uuM6_W140W140_S490S490_3_BL 0.000545076
*RES
1 DU6_M2uuM6_W140W140_S490S490_3_BL DU6_M2uuM6_W140W140_S490S490_3 8.3552 
*END

*D_NET *243 0.000989951
*CONN
*P DU6_M3uuM5_W140W140_S1680S1680_2 O
*P DU6_M3uuM5_W140W140_S1680S1680_2_BL I
*CAP
1 DU6_M3uuM5_W140W140_S1680S1680_2 0.000494976
2 DU6_M3uuM5_W140W140_S1680S1680_2_BL 0.000494976
3 DU6_M3uuM5_W140W140_S1400S1400_2 DU6_M3uuM5_W140W140_S1680S1680_2 0
*RES
1 DU6_M3uuM5_W140W140_S1680S1680_2_BL DU6_M3uuM5_W140W140_S1680S1680_2 1.72717 
*END

*D_NET *400 0.0018392
*CONN
*P O6_M1oM0_W170W170_S510S510_1 O
*P O6_M1oM0_W170W170_S510S510_1_BL I
*CAP
1 O6_M1oM0_W170W170_S510S510_1 0.000498852
2 O6_M1oM0_W170W170_S510S510_1_BL 0.000498852
3 O6_M1oM0_W170W170_S510S510_1 O6_M1oM0_W170W170_S510S510_2 0.000841494
*RES
1 O6_M1oM0_W170W170_S510S510_1_BL O6_M1oM0_W170W170_S510S510_1 860.483 
*END

*D_NET *521 0.000893996
*CONN
*P O6_M2oM1_W140W140_S1120S1120_cntxM1_38 O
*P O6_M2oM1_W140W140_S1120S1120_cntxM1_38_BL I
*CAP
1 O6_M2oM1_W140W140_S1120S1120_cntxM1_38 0.000123696
2 O6_M2oM1_W140W140_S1120S1120_cntxM1_38_BL 0.000123696
3 O6_M2oM1_W140W140_S1120S1120_cntxM1_38 O6_M2oM1_W140W140_S1120S1120_cntxM1_39 0.000323301
4 O6_M2oM1_W140W140_S1120S1120_cntxM1_37 O6_M2oM1_W140W140_S1120S1120_cntxM1_38 0.000323301
*RES
1 O6_M2oM1_W140W140_S1120S1120_cntxM1_38_BL O6_M2oM1_W140W140_S1120S1120_cntxM1_38 309.495 
*END

*D_NET *671 0.00110376
*CONN
*P O6_M2oM1_W140W140_S1680S1680_cntxM1_40 O
*P O6_M2oM1_W140W140_S1680S1680_cntxM1_40_BL I
*CAP
1 O6_M2oM1_W140W140_S1680S1680_cntxM1_40 0.000135922
2 O6_M2oM1_W140W140_S1680S1680_cntxM1_40_BL 0.000135922
3 O6_M2oM1_W140W140_S1680S1680_cntxM1_40 O6_M2oM1_W140W140_S1680S1680_cntxM1_41 0.000415958
4 O6_M2oM1_W140W140_S1680S1680_cntxM1_39 O6_M2oM1_W140W140_S1680S1680_cntxM1_40 0.000415958
*RES
1 O6_M2oM1_W140W140_S1680S1680_cntxM1_40_BL O6_M2oM1_W140W140_S1680S1680_cntxM1_40 385.846 
*END
