*SPEF "ieee 1481-1999"
*DESIGN "blk"
*DATE "11:11:11 Fri 11 11, 1111"
*VENDOR "OpenRCX"
*PROGRAM "Parallel Extraction"
*VERSION "1.0"
*DESIGN_FLOW "NAME_SCOPE LOCAL" "PIN_CAP NONE"
*DIVIDER /
*DELIMITER :
*BUS_DELIMITER []
*T_UNIT 1 NS
*C_UNIT 1 PF
*R_UNIT 1 OHM
*L_UNIT 1 HENRY

*NAME_MAP
*2 O6_M1oM0_W170W170_S170S170_2
*3 O6_M1oM0_W170W170_S170S170_3
*4 O6_M1oM0_W170W170_S170S170_4
*47 O6_M1oM0_W170W170_S1360S1360_2
*48 O6_M1oM0_W170W170_S1360S1360_3
*49 O6_M1oM0_W170W170_S1360S1360_4
*91 O6_M2oM0_W140W140_S630S630_1
*92 O6_M2oM0_W140W140_S630S630_2
*93 O6_M2oM0_W140W140_S630S630_3
*192 O6_M2oM1_W140W140_S280S280_cntxM1_18
*193 O6_M2oM1_W140W140_S280S280_cntxM1_19
*194 O6_M2oM1_W140W140_S280S280_cntxM1_20
*199 O6_M2oM1_W140W140_S280S280_cntxM1_25
*200 O6_M2oM1_W140W140_S280S280_cntxM1_26
*201 O6_M2oM1_W140W140_S280S280_cntxM1_27
*242 O6_M2oM1_W140W140_S350S350_cntxM1_19
*243 O6_M2oM1_W140W140_S350S350_cntxM1_20
*244 O6_M2oM1_W140W140_S350S350_cntxM1_21
*399 O6_M2oM1_W140W140_S560S560_cntxM1_29
*400 O6_M2oM1_W140W140_S560S560_cntxM1_30
*401 O6_M2oM1_W140W140_S560S560_cntxM1_31
*520 O6_M2oM1_W140W140_S840S840_cntxM1_3
*521 O6_M2oM1_W140W140_S840S840_cntxM1_4
*522 O6_M2oM1_W140W140_S840S840_cntxM1_5
*670 O6_M2oM1_W140W140_S1680S1680_cntxM1_6
*671 O6_M2oM1_W140W140_S1680S1680_cntxM1_7
*672 O6_M2oM1_W140W140_S1680S1680_cntxM1_8

*PORTS
O6_M1oM0_W170W170_S170S170_3_BL I
O6_M1oM0_W170W170_S170S170_3 O
O6_M1oM0_W170W170_S1360S1360_3_BL I
O6_M1oM0_W170W170_S1360S1360_3 O
O6_M2oM0_W140W140_S630S630_2_BL I
O6_M2oM0_W140W140_S630S630_2 O
O6_M2oM1_W140W140_S280S280_cntxM1_19_BL I
O6_M2oM1_W140W140_S280S280_cntxM1_19 O
O6_M2oM1_W140W140_S280S280_cntxM1_26_BL I
O6_M2oM1_W140W140_S280S280_cntxM1_26 O
O6_M2oM1_W140W140_S350S350_cntxM1_20_BL I
O6_M2oM1_W140W140_S350S350_cntxM1_20 O
O6_M2oM1_W140W140_S560S560_cntxM1_30_BL I
O6_M2oM1_W140W140_S560S560_cntxM1_30 O
O6_M2oM1_W140W140_S840S840_cntxM1_4_BL I
O6_M2oM1_W140W140_S840S840_cntxM1_4 O
O6_M2oM1_W140W140_S1680S1680_cntxM1_7_BL I
O6_M2oM1_W140W140_S1680S1680_cntxM1_7 O

*D_NET *3 0.00321745
*CONN
*CAP
1 *3:4 0.000294614
2 *3:2 0.000294614
3 *3:4 *4:4 0.00131411
4 *2:4 *3:4 0.00131411
*RES
1 *3:2 *3:4 1147.31 
*END

*D_NET *48 0.00139969
*CONN
*CAP
1 *48:4 0.000699845
2 *48:2 0.000699845
3 *48:4 *49:4 0
4 *47:4 *48:4 0
*RES
1 *48:2 *48:4 1147.31 
*END

*D_NET *92 0.00210894
*CONN
*CAP
1 *92:4 0.000251603
2 *92:2 0.000251603
3 *92:4 *93:4 0.00057041
4 *91:4 *92:4 0.00103533
*RES
1 *92:2 *92:4 16.7104 
*END

*D_NET *193 0.000568503
*CONN
*CAP
1 *193:4 8.6957e-05
2 *193:2 8.6957e-05
3 *193:4 *194:4 0.000197295
4 *192:4 *193:4 0.000197295
*RES
1 *193:2 *193:4 194.968 
*END

*D_NET *200 0.000568503
*CONN
*CAP
1 *200:4 8.6957e-05
2 *200:2 8.6957e-05
3 *200:4 *201:4 0.000197295
4 *199:4 *200:4 0.000197295
*RES
1 *200:2 *200:4 194.968 
*END

*D_NET *243 0.000599618
*CONN
*CAP
1 *243:4 9.6788e-05
2 *243:2 9.6788e-05
3 *243:4 *244:4 0.000203021
4 *242:4 *243:4 0.000203021
*RES
1 *243:2 *243:4 204.512 
*END

*D_NET *400 0.000675548
*CONN
*CAP
1 *400:4 9.674e-05
2 *400:2 9.674e-05
3 *400:4 *401:4 0.000241034
4 *399:4 *400:4 0.000241034
*RES
1 *400:2 *400:4 233.143 
*END

*D_NET *521 0.000786956
*CONN
*CAP
1 *521:4 0.000113923
2 *521:2 0.000113923
3 *521:4 *522:4 0.000279555
4 *520:4 *521:4 0.000279555
*RES
1 *521:2 *521:4 271.319 
*END

*D_NET *671 0.00110378
*CONN
*CAP
1 *671:4 0.000135952
2 *671:2 0.000135952
3 *671:4 *672:4 0.000415937
4 *670:4 *671:4 0.000415937
*RES
1 *671:2 *671:4 385.846 
*END
