*SPEF "ieee 1481-1999"
*DESIGN "blk"
*DATE "11:11:11 Fri 11 11, 1111"
*VENDOR "OpenRCX"
*PROGRAM "Parallel Extraction"
*VERSION "1.0"
*DESIGN_FLOW "NAME_SCOPE LOCAL" "PIN_CAP NONE"
*DIVIDER /
*DELIMITER :
*BUS_DELIMITER []
*T_UNIT 1 NS
*C_UNIT 1 PF
*R_UNIT 1 OHM
*L_UNIT 1 HENRY

*NAME_MAP
*3 O6_M1oM0_W170W170_S170S170_3
*48 O6_M1oM0_W170W170_S1360S1360_3
*92 O6_M2oM0_W140W140_S630S630_2
*193 O6_M2oM1_W140W140_S280S280_cntxM1_19
*200 O6_M2oM1_W140W140_S280S280_cntxM1_26
*243 O6_M2oM1_W140W140_S350S350_cntxM1_20
*400 O6_M2oM1_W140W140_S560S560_cntxM1_30
*521 O6_M2oM1_W140W140_S840S840_cntxM1_4
*671 O6_M2oM1_W140W140_S1680S1680_cntxM1_7

*PORTS
O6_M1oM0_W170W170_S170S170_2 O
O6_M1oM0_W170W170_S170S170_3_BL I
O6_M1oM0_W170W170_S170S170_3 O
O6_M1oM0_W170W170_S170S170_4 O
O6_M1oM0_W170W170_S1360S1360_2 O
O6_M1oM0_W170W170_S1360S1360_3_BL I
O6_M1oM0_W170W170_S1360S1360_3 O
O6_M1oM0_W170W170_S1360S1360_4 O
O6_M2oM0_W140W140_S630S630_1 O
O6_M2oM0_W140W140_S630S630_2_BL I
O6_M2oM0_W140W140_S630S630_2 O
O6_M2oM0_W140W140_S630S630_3 O
O6_M2oM1_W140W140_S280S280_cntxM1_18 O
O6_M2oM1_W140W140_S280S280_cntxM1_19_BL I
O6_M2oM1_W140W140_S280S280_cntxM1_19 O
O6_M2oM1_W140W140_S280S280_cntxM1_20 O
O6_M2oM1_W140W140_S280S280_cntxM1_25 O
O6_M2oM1_W140W140_S280S280_cntxM1_26_BL I
O6_M2oM1_W140W140_S280S280_cntxM1_26 O
O6_M2oM1_W140W140_S280S280_cntxM1_27 O
O6_M2oM1_W140W140_S350S350_cntxM1_19 O
O6_M2oM1_W140W140_S350S350_cntxM1_20_BL I
O6_M2oM1_W140W140_S350S350_cntxM1_20 O
O6_M2oM1_W140W140_S350S350_cntxM1_21 O
O6_M2oM1_W140W140_S560S560_cntxM1_29 O
O6_M2oM1_W140W140_S560S560_cntxM1_30_BL I
O6_M2oM1_W140W140_S560S560_cntxM1_30 O
O6_M2oM1_W140W140_S560S560_cntxM1_31 O
O6_M2oM1_W140W140_S840S840_cntxM1_3 O
O6_M2oM1_W140W140_S840S840_cntxM1_4_BL I
O6_M2oM1_W140W140_S840S840_cntxM1_4 O
O6_M2oM1_W140W140_S840S840_cntxM1_5 O
O6_M2oM1_W140W140_S1680S1680_cntxM1_6 O
O6_M2oM1_W140W140_S1680S1680_cntxM1_7_BL I
O6_M2oM1_W140W140_S1680S1680_cntxM1_7 O
O6_M2oM1_W140W140_S1680S1680_cntxM1_8 O

*D_NET *3 0.00321745
*CONN
*P O6_M1oM0_W170W170_S170S170_3 O
*P O6_M1oM0_W170W170_S170S170_3_BL I
*CAP
1 O6_M1oM0_W170W170_S170S170_3 0.000294614
2 O6_M1oM0_W170W170_S170S170_3_BL 0.000294614
3 O6_M1oM0_W170W170_S170S170_3 O6_M1oM0_W170W170_S170S170_4 0.00131411
4 O6_M1oM0_W170W170_S170S170_2 O6_M1oM0_W170W170_S170S170_3 0.00131411
*RES
1 O6_M1oM0_W170W170_S170S170_3_BL O6_M1oM0_W170W170_S170S170_3 1147.31 
*END

*D_NET *48 0.00139969
*CONN
*P O6_M1oM0_W170W170_S1360S1360_3 O
*P O6_M1oM0_W170W170_S1360S1360_3_BL I
*CAP
1 O6_M1oM0_W170W170_S1360S1360_3 0.000699845
2 O6_M1oM0_W170W170_S1360S1360_3_BL 0.000699845
3 O6_M1oM0_W170W170_S1360S1360_3 O6_M1oM0_W170W170_S1360S1360_4 0
4 O6_M1oM0_W170W170_S1360S1360_2 O6_M1oM0_W170W170_S1360S1360_3 0
*RES
1 O6_M1oM0_W170W170_S1360S1360_3_BL O6_M1oM0_W170W170_S1360S1360_3 1147.31 
*END

*D_NET *92 0.00236051
*CONN
*P O6_M2oM0_W140W140_S630S630_2 O
*P O6_M2oM0_W140W140_S630S630_2_BL I
*CAP
1 O6_M2oM0_W140W140_S630S630_2 0.00024867
2 O6_M2oM0_W140W140_S630S630_2_BL 0.00024867
3 O6_M2oM0_W140W140_S630S630_2 O6_M2oM0_W140W140_S630S630_3 0.00057041
4 O6_M2oM0_W140W140_S630S630_1 O6_M2oM0_W140W140_S630S630_2 0.00129276
*RES
1 O6_M2oM0_W140W140_S630S630_2_BL O6_M2oM0_W140W140_S630S630_2 16.7104 
*END

*D_NET *193 0.000568503
*CONN
*P O6_M2oM1_W140W140_S280S280_cntxM1_19 O
*P O6_M2oM1_W140W140_S280S280_cntxM1_19_BL I
*CAP
1 O6_M2oM1_W140W140_S280S280_cntxM1_19 8.6957e-05
2 O6_M2oM1_W140W140_S280S280_cntxM1_19_BL 8.6957e-05
3 O6_M2oM1_W140W140_S280S280_cntxM1_19 O6_M2oM1_W140W140_S280S280_cntxM1_20 0.000197295
4 O6_M2oM1_W140W140_S280S280_cntxM1_18 O6_M2oM1_W140W140_S280S280_cntxM1_19 0.000197295
*RES
1 O6_M2oM1_W140W140_S280S280_cntxM1_19_BL O6_M2oM1_W140W140_S280S280_cntxM1_19 194.968 
*END

*D_NET *200 0.000568503
*CONN
*P O6_M2oM1_W140W140_S280S280_cntxM1_26 O
*P O6_M2oM1_W140W140_S280S280_cntxM1_26_BL I
*CAP
1 O6_M2oM1_W140W140_S280S280_cntxM1_26 8.6957e-05
2 O6_M2oM1_W140W140_S280S280_cntxM1_26_BL 8.6957e-05
3 O6_M2oM1_W140W140_S280S280_cntxM1_26 O6_M2oM1_W140W140_S280S280_cntxM1_27 0.000197295
4 O6_M2oM1_W140W140_S280S280_cntxM1_25 O6_M2oM1_W140W140_S280S280_cntxM1_26 0.000197295
*RES
1 O6_M2oM1_W140W140_S280S280_cntxM1_26_BL O6_M2oM1_W140W140_S280S280_cntxM1_26 194.968 
*END

*D_NET *243 0.000599618
*CONN
*P O6_M2oM1_W140W140_S350S350_cntxM1_20 O
*P O6_M2oM1_W140W140_S350S350_cntxM1_20_BL I
*CAP
1 O6_M2oM1_W140W140_S350S350_cntxM1_20 9.6788e-05
2 O6_M2oM1_W140W140_S350S350_cntxM1_20_BL 9.6788e-05
3 O6_M2oM1_W140W140_S350S350_cntxM1_20 O6_M2oM1_W140W140_S350S350_cntxM1_21 0.000203021
4 O6_M2oM1_W140W140_S350S350_cntxM1_19 O6_M2oM1_W140W140_S350S350_cntxM1_20 0.000203021
*RES
1 O6_M2oM1_W140W140_S350S350_cntxM1_20_BL O6_M2oM1_W140W140_S350S350_cntxM1_20 204.512 
*END

*D_NET *400 0.000675548
*CONN
*P O6_M2oM1_W140W140_S560S560_cntxM1_30 O
*P O6_M2oM1_W140W140_S560S560_cntxM1_30_BL I
*CAP
1 O6_M2oM1_W140W140_S560S560_cntxM1_30 9.674e-05
2 O6_M2oM1_W140W140_S560S560_cntxM1_30_BL 9.674e-05
3 O6_M2oM1_W140W140_S560S560_cntxM1_30 O6_M2oM1_W140W140_S560S560_cntxM1_31 0.000241034
4 O6_M2oM1_W140W140_S560S560_cntxM1_29 O6_M2oM1_W140W140_S560S560_cntxM1_30 0.000241034
*RES
1 O6_M2oM1_W140W140_S560S560_cntxM1_30_BL O6_M2oM1_W140W140_S560S560_cntxM1_30 233.143 
*END

*D_NET *521 0.000786956
*CONN
*P O6_M2oM1_W140W140_S840S840_cntxM1_4 O
*P O6_M2oM1_W140W140_S840S840_cntxM1_4_BL I
*CAP
1 O6_M2oM1_W140W140_S840S840_cntxM1_4 0.000113923
2 O6_M2oM1_W140W140_S840S840_cntxM1_4_BL 0.000113923
3 O6_M2oM1_W140W140_S840S840_cntxM1_4 O6_M2oM1_W140W140_S840S840_cntxM1_5 0.000279555
4 O6_M2oM1_W140W140_S840S840_cntxM1_3 O6_M2oM1_W140W140_S840S840_cntxM1_4 0.000279555
*RES
1 O6_M2oM1_W140W140_S840S840_cntxM1_4_BL O6_M2oM1_W140W140_S840S840_cntxM1_4 271.319 
*END

*D_NET *671 0.00110378
*CONN
*P O6_M2oM1_W140W140_S1680S1680_cntxM1_7 O
*P O6_M2oM1_W140W140_S1680S1680_cntxM1_7_BL I
*CAP
1 O6_M2oM1_W140W140_S1680S1680_cntxM1_7 0.000135952
2 O6_M2oM1_W140W140_S1680S1680_cntxM1_7_BL 0.000135952
3 O6_M2oM1_W140W140_S1680S1680_cntxM1_7 O6_M2oM1_W140W140_S1680S1680_cntxM1_8 0.000415937
4 O6_M2oM1_W140W140_S1680S1680_cntxM1_6 O6_M2oM1_W140W140_S1680S1680_cntxM1_7 0.000415937
*RES
1 O6_M2oM1_W140W140_S1680S1680_cntxM1_7_BL O6_M2oM1_W140W140_S1680S1680_cntxM1_7 385.846 
*END
