*SPEF "ieee 1481-1999"
*DESIGN "gcd"
*DATE "11:11:11 Fri 11 11, 1111"
*VENDOR "OpenRCX"
*PROGRAM "Parallel Extraction"
*VERSION "1.0"
*DESIGN_FLOW "NAME_SCOPE LOCAL" "PIN_CAP NONE"
*DIVIDER /
*DELIMITER :
*BUS_DELIMITER []
*T_UNIT 1 NS
*C_UNIT 1 PF
*R_UNIT 1 OHM
*L_UNIT 1 HENRY

*NAME_MAP
*1 clk
*2 req_msg[0]
*3 req_msg[10]
*4 req_msg[11]
*5 req_msg[12]
*6 req_msg[13]
*7 req_msg[14]
*8 req_msg[15]
*9 req_msg[16]
*10 req_msg[17]
*11 req_msg[18]
*12 req_msg[19]
*13 req_msg[1]
*14 req_msg[20]
*15 req_msg[21]
*16 req_msg[22]
*17 req_msg[23]
*18 req_msg[24]
*19 req_msg[25]
*20 req_msg[26]
*21 req_msg[27]
*22 req_msg[28]
*23 req_msg[29]
*24 req_msg[2]
*25 req_msg[30]
*26 req_msg[31]
*27 req_msg[3]
*28 req_msg[4]
*29 req_msg[5]
*30 req_msg[6]
*31 req_msg[7]
*32 req_msg[8]
*33 req_msg[9]
*34 req_rdy
*35 req_val
*36 reset
*37 resp_msg[0]
*38 resp_msg[10]
*39 resp_msg[11]
*40 resp_msg[12]
*41 resp_msg[13]
*42 resp_msg[14]
*43 resp_msg[15]
*44 resp_msg[1]
*45 resp_msg[2]
*46 resp_msg[3]
*47 resp_msg[4]
*48 resp_msg[5]
*49 resp_msg[6]
*50 resp_msg[7]
*51 resp_msg[8]
*52 resp_msg[9]
*53 resp_rdy
*54 resp_val
*57 _000_
*58 _001_
*59 _002_
*60 _003_
*61 _004_
*62 _005_
*63 _006_
*64 _007_
*65 _008_
*66 _009_
*67 _010_
*68 _011_
*69 _012_
*70 _013_
*71 _014_
*72 _015_
*73 _016_
*74 _017_
*75 _018_
*76 _019_
*77 _020_
*78 _021_
*79 _022_
*80 _023_
*81 _024_
*82 _025_
*83 _026_
*84 _027_
*85 _028_
*86 _029_
*87 _030_
*88 _031_
*89 _032_
*90 _033_
*91 _034_
*92 _035_
*93 _036_
*94 _037_
*95 _038_
*96 _039_
*97 _040_
*98 _041_
*99 _042_
*100 _043_
*101 _044_
*102 _045_
*103 _046_
*104 _047_
*105 _048_
*106 _049_
*107 _050_
*108 _051_
*109 _052_
*110 _053_
*111 _054_
*112 _055_
*113 _056_
*114 _057_
*115 _058_
*116 _059_
*117 _060_
*118 _061_
*119 _062_
*120 _063_
*121 _064_
*122 _065_
*123 _066_
*124 _067_
*125 _068_
*126 _069_
*127 _070_
*128 _071_
*129 _072_
*130 _073_
*131 _074_
*132 _075_
*133 _076_
*134 _077_
*135 _078_
*136 _079_
*137 _080_
*138 _081_
*139 _082_
*140 _083_
*141 _084_
*142 _085_
*143 _086_
*144 _087_
*145 _088_
*146 _089_
*147 _090_
*148 _091_
*149 _092_
*150 _093_
*151 _094_
*152 _095_
*153 _096_
*154 _097_
*155 _098_
*156 _099_
*157 _100_
*158 _101_
*159 _102_
*160 _103_
*161 _104_
*162 _105_
*163 _106_
*164 _107_
*165 _108_
*166 _109_
*167 _110_
*168 _111_
*169 _112_
*170 _113_
*171 _114_
*172 _115_
*173 _116_
*174 _117_
*175 _118_
*176 _119_
*177 _120_
*178 _121_
*179 _122_
*180 _123_
*181 _124_
*182 _125_
*183 _126_
*184 _127_
*185 _128_
*186 _129_
*187 _130_
*188 _131_
*189 _132_
*190 _133_
*191 _134_
*192 _135_
*193 _136_
*194 _137_
*195 _138_
*196 _139_
*197 _140_
*198 _141_
*199 _142_
*200 _143_
*201 _144_
*202 _145_
*203 _146_
*204 _147_
*205 _148_
*206 _149_
*207 _150_
*208 _151_
*209 _152_
*210 _153_
*211 _154_
*212 _155_
*213 _156_
*214 _157_
*215 _158_
*216 _159_
*217 _160_
*218 _161_
*219 _162_
*220 _163_
*221 _164_
*222 _165_
*223 _166_
*224 _167_
*225 _168_
*226 _169_
*227 _170_
*228 _171_
*229 _172_
*230 _173_
*231 _174_
*232 _175_
*233 _176_
*234 _177_
*235 _178_
*236 _179_
*237 _180_
*238 _181_
*239 _182_
*240 _183_
*241 _184_
*242 _185_
*243 _186_
*244 _187_
*245 _188_
*246 _189_
*247 _190_
*248 _191_
*249 _192_
*250 _193_
*251 _194_
*252 _195_
*253 _196_
*254 _197_
*255 _198_
*256 _199_
*257 _200_
*258 _201_
*259 _202_
*260 _203_
*261 _204_
*262 _205_
*263 _206_
*264 _207_
*265 _208_
*266 _209_
*267 _210_
*268 _211_
*269 _212_
*270 _213_
*271 _214_
*272 _215_
*273 _216_
*274 _217_
*275 _218_
*276 _219_
*277 _220_
*278 _221_
*279 _222_
*280 _223_
*281 _224_
*282 _225_
*283 _226_
*284 ctrl.state.out\[1\]
*285 ctrl.state.out\[2\]
*286 dpath.a_lt_b$in0\[0\]
*287 dpath.a_lt_b$in0\[10\]
*288 dpath.a_lt_b$in0\[11\]
*289 dpath.a_lt_b$in0\[12\]
*290 dpath.a_lt_b$in0\[13\]
*291 dpath.a_lt_b$in0\[14\]
*292 dpath.a_lt_b$in0\[15\]
*293 dpath.a_lt_b$in0\[1\]
*294 dpath.a_lt_b$in0\[2\]
*295 dpath.a_lt_b$in0\[3\]
*296 dpath.a_lt_b$in0\[4\]
*297 dpath.a_lt_b$in0\[5\]
*298 dpath.a_lt_b$in0\[6\]
*299 dpath.a_lt_b$in0\[7\]
*300 dpath.a_lt_b$in0\[8\]
*301 dpath.a_lt_b$in0\[9\]
*302 dpath.a_lt_b$in1\[0\]
*303 dpath.a_lt_b$in1\[10\]
*304 dpath.a_lt_b$in1\[11\]
*305 dpath.a_lt_b$in1\[12\]
*306 dpath.a_lt_b$in1\[13\]
*307 dpath.a_lt_b$in1\[14\]
*308 dpath.a_lt_b$in1\[15\]
*309 dpath.a_lt_b$in1\[1\]
*310 dpath.a_lt_b$in1\[2\]
*311 dpath.a_lt_b$in1\[3\]
*312 dpath.a_lt_b$in1\[4\]
*313 dpath.a_lt_b$in1\[5\]
*314 dpath.a_lt_b$in1\[6\]
*315 dpath.a_lt_b$in1\[7\]
*316 dpath.a_lt_b$in1\[8\]
*317 dpath.a_lt_b$in1\[9\]
*318 clknet_0_clk
*319 clknet_1_0_0_clk
*320 clknet_1_1_0_clk
*321 clknet_2_0_0_clk
*322 clknet_2_1_0_clk
*323 clknet_2_2_0_clk
*324 clknet_2_3_0_clk
*325 _227_
*326 _228_
*327 _229_
*328 _230_
*329 _231_
*330 _232_
*331 _233_
*332 _234_
*333 _235_
*334 _236_
*335 _237_
*336 _238_
*337 _239_
*338 _240_
*339 _241_
*340 _242_
*341 _243_
*342 _244_
*343 _245_
*344 _246_
*345 _247_
*346 _248_
*347 _249_
*348 _250_
*349 _251_
*350 _252_
*351 _253_
*352 _254_
*353 _255_
*354 _256_
*355 _257_
*356 _258_
*357 _259_
*358 _260_
*359 _261_
*360 _262_
*361 _263_
*362 _264_
*363 _265_
*364 _266_
*365 _267_
*366 _268_
*367 _269_
*368 _270_
*369 _271_
*370 _272_
*371 _273_
*372 _274_
*373 _275_
*374 _276_
*375 _277_
*376 _278_
*377 _279_
*378 _280_
*379 _281_
*380 _282_
*381 _283_
*382 _284_
*383 _285_
*384 _286_
*385 _287_
*386 _288_
*387 _289_
*388 _290_
*389 _291_
*390 _292_
*391 _293_
*392 _294_
*393 _295_
*394 _296_
*395 _297_
*396 _298_
*397 _299_
*398 _300_
*399 _301_
*400 _302_
*401 _303_
*402 _304_
*403 _305_
*404 _306_
*405 _307_
*406 _308_
*407 _309_
*408 _310_
*409 _311_
*410 _312_
*411 _313_
*412 _314_
*413 _315_
*414 _316_
*415 _317_
*416 _318_
*417 _319_
*418 _320_
*419 _321_
*420 _322_
*421 _323_
*422 _324_
*423 _325_
*424 _326_
*425 _327_
*426 _328_
*427 _329_
*428 _330_
*429 _331_
*430 _332_
*431 _333_
*432 _334_
*433 _335_
*434 _336_
*435 _337_
*436 _338_
*437 _339_
*438 _340_
*439 _341_
*440 _342_
*441 _343_
*442 _344_
*443 _345_
*444 _346_
*445 _347_
*446 _348_
*447 _349_
*448 _350_
*449 _351_
*450 _352_
*451 _353_
*452 _354_
*453 _355_
*454 _356_
*455 _357_
*456 _358_
*457 _359_
*458 _360_
*459 _361_
*460 _362_
*461 _363_
*462 _364_
*463 _365_
*464 _366_
*465 _367_
*466 _368_
*467 _369_
*468 _370_
*469 _371_
*470 _372_
*471 _373_
*472 _374_
*473 _375_
*474 _376_
*475 _377_
*476 _378_
*477 _379_
*478 _380_
*479 _381_
*480 _382_
*481 _383_
*482 _384_
*483 _385_
*484 _386_
*485 _387_
*486 _388_
*487 _389_
*488 _390_
*489 _391_
*490 _392_
*491 _393_
*492 _394_
*493 _395_
*494 _396_
*495 _397_
*496 _398_
*497 _399_
*498 _400_
*499 _401_
*500 _402_
*501 _403_
*502 _404_
*503 _405_
*504 _406_
*505 _407_
*506 _408_
*507 _409_
*508 _410_
*509 _411_
*510 _412_
*511 _413_
*512 _414_
*513 _415_
*514 _416_
*515 _417_
*516 _418_
*517 _419_
*518 _420_
*519 _421_
*520 _422_
*521 _423_
*522 _424_
*523 _425_
*524 _426_
*525 _427_
*526 _428_
*527 _429_
*528 _430_
*529 _431_
*530 _432_
*531 _433_
*532 _434_
*533 _435_
*534 _436_
*535 _437_
*536 _438_
*537 _439_
*538 _440_
*539 _441_
*540 _442_
*541 _443_
*542 _444_
*543 _445_
*544 _446_
*545 _447_
*546 _448_
*547 _449_
*548 _450_
*549 _451_
*550 _452_
*551 _453_
*552 _454_
*553 _455_
*554 _456_
*555 _457_
*556 _458_
*557 _459_
*558 _460_
*559 _461_
*560 _462_
*561 _463_
*562 _464_
*563 _465_
*564 _466_
*565 _467_
*566 _468_
*567 _469_
*568 _470_
*569 _471_
*570 _472_
*571 _473_
*572 _474_
*573 _475_
*574 _476_
*575 _477_
*576 _478_
*577 _479_
*578 _480_
*579 _481_
*580 _482_
*581 _483_
*582 _484_
*583 _485_
*584 _486_
*585 _487_
*586 _488_
*587 _489_
*588 _490_
*589 _491_
*590 _492_
*591 _493_
*592 _494_
*593 _495_
*594 _496_
*595 _497_
*596 _498_
*597 _499_
*598 _500_
*599 _501_
*600 _502_
*601 _503_
*602 _504_
*603 _505_
*604 PHY_0
*605 PHY_1
*606 PHY_2
*607 PHY_3
*608 PHY_4
*609 PHY_5
*610 PHY_6
*611 PHY_7
*612 PHY_8
*613 PHY_9
*614 PHY_10
*615 PHY_11
*616 PHY_12
*617 PHY_13
*618 PHY_14
*619 PHY_15
*620 PHY_16
*621 PHY_17
*622 PHY_18
*623 PHY_19
*624 PHY_20
*625 PHY_21
*626 PHY_22
*627 PHY_23
*628 PHY_24
*629 PHY_25
*630 PHY_26
*631 PHY_27
*632 PHY_28
*633 PHY_29
*634 PHY_30
*635 PHY_31
*636 PHY_32
*637 PHY_33
*638 PHY_34
*639 PHY_35
*640 PHY_36
*641 PHY_37
*642 PHY_38
*643 PHY_39
*644 PHY_40
*645 PHY_41
*646 PHY_42
*647 PHY_43
*648 PHY_44
*649 PHY_45
*650 PHY_46
*651 PHY_47
*652 PHY_48
*653 PHY_49
*654 PHY_50
*655 PHY_51
*656 PHY_52
*657 PHY_53
*658 PHY_54
*659 PHY_55
*660 PHY_56
*661 PHY_57
*662 PHY_58
*663 PHY_59
*664 PHY_60
*665 PHY_61
*666 PHY_62
*667 PHY_63
*668 PHY_64
*669 PHY_65
*670 PHY_66
*671 PHY_67
*672 PHY_68
*673 PHY_69
*674 PHY_70
*675 PHY_71
*676 PHY_72
*677 PHY_73
*678 PHY_74
*679 PHY_75
*680 PHY_76
*681 PHY_77
*682 PHY_78
*683 PHY_79
*684 PHY_80
*685 PHY_81
*686 PHY_82
*687 PHY_83
*688 PHY_84
*689 PHY_85
*690 PHY_86
*691 PHY_87
*692 PHY_88
*693 PHY_89
*694 PHY_90
*695 PHY_91
*696 PHY_92
*697 PHY_93
*698 PHY_94
*699 PHY_95
*700 PHY_96
*701 PHY_97
*702 PHY_98
*703 PHY_99
*704 PHY_100
*705 PHY_101
*706 PHY_102
*707 PHY_103
*708 PHY_104
*709 PHY_105
*710 PHY_106
*711 PHY_107
*712 PHY_108
*713 PHY_109
*714 PHY_110
*715 PHY_111
*716 PHY_112
*717 PHY_113
*718 PHY_114
*719 PHY_115
*720 PHY_116
*721 PHY_117
*722 PHY_118
*723 PHY_119
*724 PHY_120
*725 PHY_121
*726 PHY_122
*727 PHY_123
*728 PHY_124
*729 PHY_125
*730 PHY_126
*731 PHY_127
*732 PHY_128
*733 PHY_129
*734 PHY_130
*735 PHY_131
*736 PHY_132
*737 PHY_133
*738 PHY_134
*739 PHY_135
*740 PHY_136
*741 PHY_137
*742 PHY_138
*743 PHY_139
*744 PHY_140
*745 PHY_141
*746 PHY_142
*747 PHY_143
*748 PHY_144
*749 PHY_145
*750 PHY_146
*751 PHY_147
*752 PHY_148
*753 PHY_149
*754 PHY_150
*755 PHY_151
*756 PHY_152
*757 PHY_153
*758 PHY_154
*759 PHY_155
*760 PHY_156
*761 PHY_157
*762 PHY_158
*763 PHY_159
*764 PHY_160
*765 PHY_161
*766 PHY_162
*767 PHY_163
*768 PHY_164
*769 PHY_165
*770 PHY_166
*771 PHY_167
*772 PHY_168
*773 PHY_169
*774 PHY_170
*775 PHY_171
*776 PHY_172
*777 PHY_173
*778 PHY_174
*779 PHY_175
*780 PHY_176
*781 PHY_177
*782 PHY_178
*783 PHY_179
*784 PHY_180
*785 PHY_181
*786 PHY_182
*787 PHY_183
*788 PHY_184
*789 PHY_185
*790 PHY_186
*791 PHY_187
*792 PHY_188
*793 PHY_189
*794 PHY_190
*795 PHY_191
*796 PHY_192
*797 PHY_193
*798 PHY_194
*799 PHY_195
*800 PHY_196
*801 PHY_197
*802 PHY_198
*803 PHY_199
*804 PHY_200
*805 PHY_201
*806 PHY_202
*807 PHY_203
*808 PHY_204
*809 PHY_205
*810 PHY_206
*811 PHY_207
*812 PHY_208
*813 PHY_209
*814 PHY_210
*815 PHY_211
*816 PHY_212
*817 PHY_213
*818 PHY_214
*819 PHY_215
*820 PHY_216
*821 PHY_217
*822 PHY_218
*823 PHY_219
*824 PHY_220
*825 PHY_221
*826 PHY_222
*827 PHY_223
*828 PHY_224
*829 PHY_225
*830 PHY_226
*831 PHY_227
*832 PHY_228
*833 PHY_229
*834 PHY_230
*835 PHY_231
*836 PHY_232
*837 PHY_233
*838 PHY_234
*839 PHY_235
*840 PHY_236
*841 PHY_237
*842 PHY_238
*843 PHY_239
*844 PHY_240
*845 PHY_241
*846 PHY_242
*847 PHY_243
*848 PHY_244
*849 PHY_245
*850 PHY_246
*851 PHY_247
*852 PHY_248
*853 PHY_249
*854 PHY_250
*855 PHY_251
*856 PHY_252
*857 PHY_253
*858 PHY_254
*859 PHY_255
*860 PHY_256
*861 PHY_257
*862 PHY_258
*863 PHY_259
*864 PHY_260
*865 PHY_261
*866 PHY_262
*867 PHY_263
*868 PHY_264
*869 PHY_265
*870 PHY_266
*871 PHY_267
*872 PHY_268
*873 PHY_269
*874 PHY_270
*875 PHY_271
*876 PHY_272
*877 PHY_273
*878 PHY_274
*879 PHY_275
*880 PHY_276
*881 PHY_277
*882 PHY_278
*883 PHY_279
*884 PHY_280
*885 PHY_281
*886 PHY_282
*887 PHY_283
*888 PHY_284
*889 PHY_285
*890 PHY_286
*891 PHY_287
*892 PHY_288
*893 PHY_289
*894 PHY_290
*895 PHY_291
*896 PHY_292
*897 PHY_293
*898 PHY_294
*899 PHY_295
*900 PHY_296
*901 PHY_297
*902 PHY_298
*903 PHY_299
*904 PHY_300
*905 PHY_301
*906 PHY_302
*907 PHY_303
*908 PHY_304
*909 PHY_305
*910 PHY_306
*911 PHY_307
*912 PHY_308
*913 PHY_309
*914 PHY_310
*915 PHY_311
*916 PHY_312
*917 PHY_313
*918 PHY_314
*919 PHY_315
*920 PHY_316
*921 PHY_317
*922 PHY_318
*923 PHY_319
*924 PHY_320
*925 PHY_321
*926 PHY_322
*927 PHY_323
*928 PHY_324
*929 PHY_325
*930 PHY_326
*931 PHY_327
*932 PHY_328
*933 PHY_329
*934 PHY_330
*935 PHY_331
*936 PHY_332
*937 PHY_333
*938 PHY_334
*939 PHY_335
*940 PHY_336
*941 PHY_337
*942 PHY_338
*943 PHY_339
*944 PHY_340
*945 PHY_341
*946 PHY_342
*947 PHY_343
*948 PHY_344
*949 PHY_345
*950 PHY_346
*951 PHY_347
*952 PHY_348
*953 PHY_349
*954 PHY_350
*955 PHY_351
*956 PHY_352
*957 PHY_353
*958 PHY_354
*959 PHY_355
*960 PHY_356
*961 PHY_357
*962 PHY_358
*963 PHY_359
*964 PHY_360
*965 PHY_361
*966 PHY_362
*967 PHY_363
*968 PHY_364
*969 PHY_365
*970 PHY_366
*971 PHY_367
*972 PHY_368
*973 PHY_369
*974 PHY_370
*975 PHY_371
*976 PHY_372
*977 PHY_373
*978 PHY_374
*979 PHY_375
*980 PHY_376
*981 PHY_377
*982 PHY_378
*983 PHY_379
*984 PHY_380
*985 PHY_381
*986 PHY_382
*987 PHY_383
*988 PHY_384
*989 PHY_385
*990 PHY_386
*991 PHY_387
*992 PHY_388
*993 PHY_389
*994 PHY_390
*995 PHY_391
*996 PHY_392
*997 PHY_393
*998 PHY_394
*999 PHY_395
*1000 PHY_396
*1001 PHY_397
*1002 PHY_398
*1003 PHY_399
*1004 PHY_400
*1005 PHY_401
*1006 PHY_402
*1007 PHY_403
*1008 PHY_404
*1009 PHY_405
*1010 PHY_406
*1011 PHY_407
*1012 PHY_408
*1013 PHY_409
*1014 PHY_410
*1015 PHY_411
*1016 PHY_412
*1017 PHY_413
*1018 PHY_414
*1019 PHY_415
*1020 PHY_416
*1021 PHY_417
*1022 PHY_418
*1023 PHY_419
*1024 PHY_420
*1025 PHY_421
*1026 PHY_422
*1027 PHY_423
*1028 PHY_424
*1029 PHY_425
*1030 PHY_426
*1031 PHY_427
*1032 PHY_428
*1033 PHY_429
*1034 PHY_430
*1035 PHY_431
*1036 PHY_432
*1037 PHY_433
*1038 PHY_434
*1039 PHY_435
*1040 PHY_436
*1041 PHY_437
*1042 PHY_438
*1043 PHY_439
*1044 PHY_440
*1045 PHY_441
*1046 PHY_442
*1047 PHY_443
*1048 PHY_444
*1049 PHY_445
*1050 PHY_446
*1051 PHY_447
*1052 PHY_448
*1053 PHY_449
*1054 PHY_450
*1055 PHY_451
*1056 PHY_452
*1057 PHY_453
*1058 PHY_454
*1059 PHY_455
*1060 PHY_456
*1061 PHY_457
*1062 PHY_458
*1063 PHY_459
*1064 PHY_460
*1065 PHY_461
*1066 PHY_462
*1067 PHY_463
*1068 PHY_464
*1069 PHY_465
*1070 PHY_466
*1071 PHY_467
*1072 PHY_468
*1073 PHY_469
*1074 PHY_470
*1075 PHY_471
*1076 PHY_472
*1077 PHY_473
*1078 PHY_474
*1079 PHY_475
*1080 PHY_476
*1081 PHY_477
*1082 PHY_478
*1083 PHY_479
*1084 PHY_480
*1085 PHY_481
*1086 PHY_482
*1087 PHY_483
*1088 PHY_484
*1089 PHY_485
*1090 PHY_486
*1091 PHY_487
*1092 PHY_488
*1093 PHY_489
*1094 PHY_490
*1095 PHY_491
*1096 PHY_492
*1097 PHY_493
*1098 PHY_494
*1099 PHY_495
*1100 PHY_496
*1101 PHY_497
*1102 PHY_498
*1103 PHY_499
*1104 PHY_500
*1105 PHY_501
*1106 PHY_502
*1107 PHY_503
*1108 PHY_504
*1109 PHY_505
*1110 PHY_506
*1111 PHY_507
*1112 PHY_508
*1113 PHY_509
*1114 PHY_510
*1115 PHY_511
*1116 PHY_512
*1117 PHY_513
*1118 PHY_514
*1119 PHY_515
*1120 PHY_516
*1121 PHY_517
*1122 PHY_518
*1123 PHY_519
*1124 PHY_520
*1125 PHY_521
*1126 PHY_522
*1127 PHY_523
*1128 PHY_524
*1129 PHY_525
*1130 PHY_526
*1131 PHY_527
*1132 PHY_528
*1133 PHY_529
*1134 PHY_530
*1135 PHY_531
*1136 PHY_532
*1137 PHY_533
*1138 PHY_534
*1139 PHY_535
*1140 PHY_536
*1141 PHY_537
*1142 PHY_538
*1143 PHY_539
*1144 PHY_540
*1145 PHY_541
*1146 PHY_542
*1147 PHY_543
*1148 PHY_544
*1149 PHY_545
*1150 PHY_546
*1151 PHY_547
*1152 PHY_548
*1153 PHY_549
*1154 PHY_550
*1155 PHY_551
*1156 PHY_552
*1157 PHY_553
*1158 PHY_554
*1159 PHY_555
*1160 PHY_556
*1161 PHY_557
*1162 PHY_558
*1163 PHY_559
*1164 PHY_560
*1165 PHY_561
*1166 PHY_562
*1167 PHY_563
*1168 PHY_564
*1169 PHY_565
*1170 PHY_566
*1171 PHY_567
*1172 PHY_568
*1173 PHY_569
*1174 PHY_570
*1175 PHY_571
*1176 PHY_572
*1177 PHY_573
*1178 PHY_574
*1179 PHY_575
*1180 PHY_576
*1181 PHY_577
*1182 PHY_578
*1183 PHY_579
*1184 PHY_580
*1185 PHY_581
*1186 PHY_582
*1187 PHY_583
*1188 PHY_584
*1189 PHY_585
*1190 PHY_586
*1191 PHY_587
*1192 PHY_588
*1193 PHY_589
*1194 PHY_590
*1195 PHY_591
*1196 PHY_592
*1197 PHY_593
*1198 PHY_594
*1199 PHY_595
*1200 PHY_596
*1201 PHY_597
*1202 PHY_598
*1203 PHY_599
*1204 PHY_600
*1205 PHY_601
*1206 PHY_602
*1207 PHY_603
*1208 PHY_604
*1209 PHY_605
*1210 PHY_606
*1211 PHY_607
*1212 PHY_608
*1213 PHY_609
*1214 PHY_610
*1215 PHY_611
*1216 PHY_612
*1217 PHY_613
*1218 PHY_614
*1219 PHY_615
*1220 PHY_616
*1221 PHY_617
*1222 PHY_618
*1223 PHY_619
*1224 PHY_620
*1225 PHY_621
*1226 PHY_622
*1227 PHY_623
*1228 PHY_624
*1229 PHY_625
*1230 PHY_626
*1231 PHY_627
*1232 PHY_628
*1233 PHY_629
*1234 PHY_630
*1235 PHY_631
*1236 PHY_632
*1237 PHY_633
*1238 PHY_634
*1239 PHY_635
*1240 PHY_636
*1241 PHY_637
*1242 PHY_638
*1243 PHY_639
*1244 PHY_640
*1245 PHY_641
*1246 PHY_642
*1247 PHY_643
*1248 PHY_644
*1249 PHY_645
*1250 PHY_646
*1251 PHY_647
*1252 PHY_648
*1253 PHY_649
*1254 PHY_650
*1255 PHY_651
*1256 PHY_652
*1257 PHY_653
*1258 PHY_654
*1259 PHY_655
*1260 PHY_656
*1261 PHY_657
*1262 PHY_658
*1263 PHY_659
*1264 PHY_660
*1265 PHY_661
*1266 PHY_662
*1267 PHY_663
*1268 PHY_664
*1269 PHY_665
*1270 PHY_666
*1271 PHY_667
*1272 PHY_668
*1273 PHY_669
*1274 PHY_670
*1275 PHY_671
*1276 PHY_672
*1277 PHY_673
*1278 PHY_674
*1279 PHY_675
*1280 PHY_676
*1281 PHY_677
*1282 PHY_678
*1283 PHY_679
*1284 PHY_680
*1285 PHY_681
*1286 PHY_682
*1287 PHY_683
*1288 PHY_684
*1289 PHY_685
*1290 PHY_686
*1291 PHY_687
*1292 PHY_688
*1293 PHY_689
*1294 PHY_690
*1295 PHY_691
*1296 PHY_692
*1297 PHY_693
*1298 PHY_694
*1299 PHY_695
*1300 PHY_696
*1301 PHY_697
*1302 PHY_698
*1303 PHY_699
*1304 PHY_700
*1305 PHY_701
*1306 PHY_702
*1307 PHY_703
*1308 PHY_704
*1309 PHY_705
*1310 PHY_706
*1311 PHY_707
*1312 PHY_708
*1313 PHY_709
*1314 PHY_710
*1315 PHY_711
*1316 PHY_712
*1317 PHY_713
*1318 PHY_714
*1319 PHY_715
*1320 PHY_716
*1321 PHY_717
*1322 PHY_718
*1323 PHY_719
*1324 PHY_720
*1325 PHY_721
*1326 PHY_722
*1327 PHY_723
*1328 PHY_724
*1329 PHY_725
*1330 PHY_726
*1331 PHY_727
*1332 PHY_728
*1333 PHY_729
*1334 PHY_730
*1335 PHY_731
*1336 PHY_732
*1337 PHY_733
*1338 PHY_734
*1339 PHY_735
*1340 PHY_736
*1341 PHY_737
*1342 PHY_738
*1343 PHY_739
*1344 PHY_740
*1345 PHY_741
*1346 PHY_742
*1347 PHY_743
*1348 PHY_744
*1349 PHY_745
*1350 PHY_746
*1351 PHY_747
*1352 PHY_748
*1353 PHY_749
*1354 PHY_750
*1355 PHY_751
*1356 PHY_752
*1357 PHY_753
*1358 PHY_754
*1359 PHY_755
*1360 PHY_756
*1361 PHY_757
*1362 PHY_758
*1363 PHY_759
*1364 PHY_760
*1365 PHY_761
*1366 PHY_762
*1367 PHY_763
*1368 PHY_764
*1369 PHY_765
*1370 PHY_766
*1371 PHY_767
*1372 PHY_768
*1373 PHY_769
*1374 PHY_770
*1375 PHY_771
*1376 PHY_772
*1377 PHY_773
*1378 PHY_774
*1379 PHY_775
*1380 PHY_776
*1381 PHY_777
*1382 PHY_778
*1383 PHY_779
*1384 PHY_780
*1385 PHY_781
*1386 PHY_782
*1387 PHY_783
*1388 PHY_784
*1389 PHY_785
*1390 PHY_786
*1391 PHY_787
*1392 PHY_788
*1393 PHY_789
*1394 PHY_790
*1395 PHY_791
*1396 PHY_792
*1397 PHY_793
*1398 PHY_794
*1399 PHY_795
*1400 PHY_796
*1401 PHY_797
*1402 PHY_798
*1403 PHY_799
*1404 PHY_800
*1405 PHY_801
*1406 PHY_802
*1407 PHY_803
*1408 PHY_804
*1409 PHY_805
*1410 PHY_806
*1411 PHY_807
*1412 PHY_808
*1413 PHY_809
*1414 PHY_810
*1415 PHY_811
*1416 PHY_812
*1417 PHY_813
*1418 PHY_814
*1419 PHY_815
*1420 PHY_816
*1421 PHY_817
*1422 PHY_818
*1423 PHY_819
*1424 PHY_820
*1425 PHY_821
*1426 PHY_822
*1427 PHY_823
*1428 PHY_824
*1429 PHY_825
*1430 PHY_826
*1431 PHY_827
*1432 PHY_828
*1433 PHY_829
*1434 PHY_830
*1435 PHY_831
*1436 PHY_832
*1437 PHY_833
*1438 PHY_834
*1439 PHY_835
*1440 PHY_836
*1441 PHY_837
*1442 PHY_838
*1443 PHY_839
*1444 PHY_840
*1445 PHY_841
*1446 PHY_842
*1447 PHY_843
*1448 PHY_844
*1449 PHY_845
*1450 PHY_846
*1451 PHY_847
*1452 PHY_848
*1453 PHY_849
*1454 PHY_850
*1455 PHY_851
*1456 PHY_852
*1457 PHY_853
*1458 PHY_854
*1459 PHY_855
*1460 PHY_856
*1461 PHY_857
*1462 PHY_858
*1463 PHY_859
*1464 PHY_860
*1465 PHY_861
*1466 PHY_862
*1467 PHY_863
*1468 PHY_864
*1469 PHY_865
*1470 PHY_866
*1471 PHY_867
*1472 PHY_868
*1473 PHY_869
*1474 PHY_870
*1475 PHY_871
*1476 PHY_872
*1477 PHY_873
*1478 PHY_874
*1479 PHY_875
*1480 PHY_876
*1481 PHY_877
*1482 PHY_878
*1483 PHY_879
*1484 PHY_880
*1485 PHY_881
*1486 PHY_882
*1487 PHY_883
*1488 PHY_884
*1489 PHY_885
*1490 PHY_886
*1491 PHY_887
*1492 PHY_888
*1493 PHY_889
*1494 PHY_890
*1495 PHY_891
*1496 PHY_892
*1497 PHY_893
*1498 PHY_894
*1499 PHY_895
*1500 PHY_896
*1501 PHY_897
*1502 PHY_898
*1503 PHY_899
*1504 PHY_900
*1505 PHY_901
*1506 PHY_902
*1507 PHY_903
*1508 PHY_904
*1509 PHY_905
*1510 PHY_906
*1511 PHY_907
*1512 PHY_908
*1513 PHY_909
*1514 PHY_910
*1515 PHY_911
*1516 PHY_912
*1517 PHY_913
*1518 PHY_914
*1519 PHY_915
*1520 PHY_916
*1521 PHY_917
*1522 PHY_918
*1523 PHY_919
*1524 PHY_920
*1525 PHY_921
*1526 PHY_922
*1527 PHY_923
*1528 PHY_924
*1529 PHY_925
*1530 PHY_926
*1531 PHY_927
*1532 PHY_928
*1533 PHY_929
*1534 PHY_930
*1535 PHY_931
*1536 PHY_932
*1537 PHY_933
*1538 PHY_934
*1539 PHY_935
*1540 PHY_936
*1541 PHY_937
*1542 PHY_938
*1543 PHY_939
*1544 PHY_940
*1545 PHY_941
*1546 PHY_942
*1547 PHY_943
*1548 PHY_944
*1549 PHY_945
*1550 PHY_946
*1551 PHY_947
*1552 PHY_948
*1553 PHY_949
*1554 PHY_950
*1555 PHY_951
*1556 PHY_952
*1557 PHY_953
*1558 PHY_954
*1559 PHY_955
*1560 PHY_956
*1561 PHY_957
*1562 PHY_958
*1563 PHY_959
*1564 PHY_960
*1565 PHY_961
*1566 PHY_962
*1567 PHY_963
*1568 PHY_964
*1569 PHY_965
*1570 PHY_966
*1571 PHY_967
*1572 PHY_968
*1573 PHY_969
*1574 PHY_970
*1575 PHY_971
*1576 PHY_972
*1577 PHY_973
*1578 PHY_974
*1579 PHY_975
*1580 PHY_976
*1581 PHY_977
*1582 PHY_978
*1583 PHY_979
*1584 PHY_980
*1585 PHY_981
*1586 PHY_982
*1587 PHY_983
*1588 PHY_984
*1589 clkbuf_0_clk
*1590 clkbuf_1_0_0_clk
*1591 clkbuf_1_1_0_clk
*1592 clkbuf_2_0_0_clk
*1593 clkbuf_2_1_0_clk
*1594 clkbuf_2_2_0_clk
*1595 clkbuf_2_3_0_clk
*1596 FILLER_0_4
*1597 FILLER_0_12
*1598 FILLER_0_20
*1599 FILLER_0_28
*1600 FILLER_0_31
*1601 FILLER_0_39
*1602 FILLER_0_47
*1603 FILLER_0_55
*1604 FILLER_0_59
*1605 FILLER_0_61
*1606 FILLER_0_69
*1607 FILLER_0_77
*1608 FILLER_0_85
*1609 FILLER_0_89
*1610 FILLER_0_91
*1611 FILLER_0_99
*1612 FILLER_0_107
*1613 FILLER_0_115
*1614 FILLER_0_119
*1615 FILLER_0_121
*1616 FILLER_0_129
*1617 FILLER_0_137
*1618 FILLER_0_145
*1619 FILLER_0_149
*1620 FILLER_0_151
*1621 FILLER_0_159
*1622 FILLER_0_167
*1623 FILLER_0_175
*1624 FILLER_0_179
*1625 FILLER_0_181
*1626 FILLER_0_189
*1627 FILLER_0_197
*1628 FILLER_0_205
*1629 FILLER_0_209
*1630 FILLER_0_211
*1631 FILLER_0_219
*1632 FILLER_0_227
*1633 FILLER_0_235
*1634 FILLER_0_239
*1635 FILLER_0_241
*1636 FILLER_0_245
*1637 FILLER_0_247
*1638 FILLER_0_259
*1639 FILLER_0_267
*1640 FILLER_0_269
*1641 FILLER_0_271
*1642 FILLER_0_279
*1643 FILLER_0_287
*1644 FILLER_0_295
*1645 FILLER_0_299
*1646 FILLER_0_301
*1647 FILLER_0_309
*1648 FILLER_0_317
*1649 FILLER_0_325
*1650 FILLER_0_329
*1651 FILLER_0_331
*1652 FILLER_0_339
*1653 FILLER_0_347
*1654 FILLER_0_355
*1655 FILLER_0_359
*1656 FILLER_0_361
*1657 FILLER_0_369
*1658 FILLER_0_377
*1659 FILLER_0_385
*1660 FILLER_0_389
*1661 FILLER_0_391
*1662 FILLER_0_399
*1663 FILLER_0_407
*1664 FILLER_0_415
*1665 FILLER_0_419
*1666 FILLER_0_421
*1667 FILLER_0_429
*1668 FILLER_0_437
*1669 FILLER_0_445
*1670 FILLER_0_449
*1671 FILLER_0_451
*1672 FILLER_0_459
*1673 FILLER_0_467
*1674 FILLER_0_475
*1675 FILLER_0_479
*1676 FILLER_0_481
*1677 FILLER_0_489
*1678 FILLER_0_497
*1679 FILLER_0_505
*1680 FILLER_0_509
*1681 FILLER_0_511
*1682 FILLER_0_519
*1683 FILLER_0_527
*1684 FILLER_0_535
*1685 FILLER_0_539
*1686 FILLER_0_541
*1687 FILLER_0_549
*1688 FILLER_0_557
*1689 FILLER_0_565
*1690 FILLER_0_569
*1691 FILLER_0_571
*1692 FILLER_0_579
*1693 FILLER_1_4
*1694 FILLER_1_12
*1695 FILLER_1_20
*1696 FILLER_1_28
*1697 FILLER_1_31
*1698 FILLER_1_39
*1699 FILLER_1_47
*1700 FILLER_1_55
*1701 FILLER_1_63
*1702 FILLER_1_71
*1703 FILLER_1_79
*1704 FILLER_1_87
*1705 FILLER_1_90
*1706 FILLER_1_98
*1707 FILLER_1_106
*1708 FILLER_1_114
*1709 FILLER_1_122
*1710 FILLER_1_130
*1711 FILLER_1_138
*1712 FILLER_1_146
*1713 FILLER_1_149
*1714 FILLER_1_157
*1715 FILLER_1_165
*1716 FILLER_1_173
*1717 FILLER_1_181
*1718 FILLER_1_189
*1719 FILLER_1_197
*1720 FILLER_1_205
*1721 FILLER_1_208
*1722 FILLER_1_216
*1723 FILLER_1_224
*1724 FILLER_1_232
*1725 FILLER_1_240
*1726 FILLER_1_248
*1727 FILLER_1_256
*1728 FILLER_1_264
*1729 FILLER_1_267
*1730 FILLER_1_275
*1731 FILLER_1_283
*1732 FILLER_1_291
*1733 FILLER_1_299
*1734 FILLER_1_307
*1735 FILLER_1_315
*1736 FILLER_1_323
*1737 FILLER_1_326
*1738 FILLER_1_334
*1739 FILLER_1_342
*1740 FILLER_1_350
*1741 FILLER_1_358
*1742 FILLER_1_366
*1743 FILLER_1_374
*1744 FILLER_1_382
*1745 FILLER_1_385
*1746 FILLER_1_393
*1747 FILLER_1_401
*1748 FILLER_1_409
*1749 FILLER_1_417
*1750 FILLER_1_425
*1751 FILLER_1_433
*1752 FILLER_1_441
*1753 FILLER_1_444
*1754 FILLER_1_452
*1755 FILLER_1_460
*1756 FILLER_1_468
*1757 FILLER_1_476
*1758 FILLER_1_484
*1759 FILLER_1_492
*1760 FILLER_1_500
*1761 FILLER_1_503
*1762 FILLER_1_511
*1763 FILLER_1_519
*1764 FILLER_1_527
*1765 FILLER_1_535
*1766 FILLER_1_543
*1767 FILLER_1_551
*1768 FILLER_1_559
*1769 FILLER_1_562
*1770 FILLER_1_570
*1771 FILLER_1_578
*1772 FILLER_2_4
*1773 FILLER_2_12
*1774 FILLER_2_20
*1775 FILLER_2_28
*1776 FILLER_2_36
*1777 FILLER_2_44
*1778 FILLER_2_52
*1779 FILLER_2_56
*1780 FILLER_2_58
*1781 FILLER_2_60
*1782 FILLER_2_68
*1783 FILLER_2_76
*1784 FILLER_2_84
*1785 FILLER_2_92
*1786 FILLER_2_100
*1787 FILLER_2_108
*1788 FILLER_2_116
*1789 FILLER_2_119
*1790 FILLER_2_127
*1791 FILLER_2_135
*1792 FILLER_2_143
*1793 FILLER_2_151
*1794 FILLER_2_159
*1795 FILLER_2_167
*1796 FILLER_2_175
*1797 FILLER_2_178
*1798 FILLER_2_186
*1799 FILLER_2_194
*1800 FILLER_2_202
*1801 FILLER_2_210
*1802 FILLER_2_218
*1803 FILLER_2_226
*1804 FILLER_2_234
*1805 FILLER_2_237
*1806 FILLER_2_245
*1807 FILLER_2_253
*1808 FILLER_2_261
*1809 FILLER_2_269
*1810 FILLER_2_277
*1811 FILLER_2_285
*1812 FILLER_2_293
*1813 FILLER_2_296
*1814 FILLER_2_304
*1815 FILLER_2_312
*1816 FILLER_2_320
*1817 FILLER_2_328
*1818 FILLER_2_336
*1819 FILLER_2_344
*1820 FILLER_2_352
*1821 FILLER_2_355
*1822 FILLER_2_363
*1823 FILLER_2_371
*1824 FILLER_2_379
*1825 FILLER_2_387
*1826 FILLER_2_395
*1827 FILLER_2_403
*1828 FILLER_2_411
*1829 FILLER_2_414
*1830 FILLER_2_422
*1831 FILLER_2_430
*1832 FILLER_2_438
*1833 FILLER_2_446
*1834 FILLER_2_454
*1835 FILLER_2_462
*1836 FILLER_2_470
*1837 FILLER_2_473
*1838 FILLER_2_481
*1839 FILLER_2_489
*1840 FILLER_2_497
*1841 FILLER_2_505
*1842 FILLER_2_513
*1843 FILLER_2_521
*1844 FILLER_2_529
*1845 FILLER_2_532
*1846 FILLER_2_540
*1847 FILLER_2_548
*1848 FILLER_2_556
*1849 FILLER_2_564
*1850 FILLER_2_572
*1851 FILLER_3_4
*1852 FILLER_3_12
*1853 FILLER_3_20
*1854 FILLER_3_28
*1855 FILLER_3_31
*1856 FILLER_3_39
*1857 FILLER_3_47
*1858 FILLER_3_55
*1859 FILLER_3_63
*1860 FILLER_3_71
*1861 FILLER_3_79
*1862 FILLER_3_87
*1863 FILLER_3_90
*1864 FILLER_3_98
*1865 FILLER_3_106
*1866 FILLER_3_114
*1867 FILLER_3_122
*1868 FILLER_3_130
*1869 FILLER_3_138
*1870 FILLER_3_146
*1871 FILLER_3_149
*1872 FILLER_3_157
*1873 FILLER_3_165
*1874 FILLER_3_173
*1875 FILLER_3_181
*1876 FILLER_3_189
*1877 FILLER_3_197
*1878 FILLER_3_205
*1879 FILLER_3_208
*1880 FILLER_3_216
*1881 FILLER_3_224
*1882 FILLER_3_232
*1883 FILLER_3_240
*1884 FILLER_3_248
*1885 FILLER_3_256
*1886 FILLER_3_264
*1887 FILLER_3_267
*1888 FILLER_3_275
*1889 FILLER_3_283
*1890 FILLER_3_291
*1891 FILLER_3_299
*1892 FILLER_3_307
*1893 FILLER_3_315
*1894 FILLER_3_323
*1895 FILLER_3_326
*1896 FILLER_3_334
*1897 FILLER_3_342
*1898 FILLER_3_350
*1899 FILLER_3_358
*1900 FILLER_3_366
*1901 FILLER_3_374
*1902 FILLER_3_382
*1903 FILLER_3_385
*1904 FILLER_3_393
*1905 FILLER_3_401
*1906 FILLER_3_409
*1907 FILLER_3_417
*1908 FILLER_3_425
*1909 FILLER_3_433
*1910 FILLER_3_441
*1911 FILLER_3_444
*1912 FILLER_3_452
*1913 FILLER_3_460
*1914 FILLER_3_468
*1915 FILLER_3_476
*1916 FILLER_3_484
*1917 FILLER_3_492
*1918 FILLER_3_500
*1919 FILLER_3_503
*1920 FILLER_3_511
*1921 FILLER_3_519
*1922 FILLER_3_527
*1923 FILLER_3_535
*1924 FILLER_3_543
*1925 FILLER_3_551
*1926 FILLER_3_559
*1927 FILLER_3_562
*1928 FILLER_3_570
*1929 FILLER_3_578
*1930 FILLER_4_4
*1931 FILLER_4_12
*1932 FILLER_4_20
*1933 FILLER_4_28
*1934 FILLER_4_36
*1935 FILLER_4_44
*1936 FILLER_4_52
*1937 FILLER_4_56
*1938 FILLER_4_58
*1939 FILLER_4_60
*1940 FILLER_4_68
*1941 FILLER_4_76
*1942 FILLER_4_84
*1943 FILLER_4_92
*1944 FILLER_4_100
*1945 FILLER_4_108
*1946 FILLER_4_116
*1947 FILLER_4_119
*1948 FILLER_4_127
*1949 FILLER_4_135
*1950 FILLER_4_143
*1951 FILLER_4_151
*1952 FILLER_4_159
*1953 FILLER_4_167
*1954 FILLER_4_175
*1955 FILLER_4_178
*1956 FILLER_4_186
*1957 FILLER_4_194
*1958 FILLER_4_202
*1959 FILLER_4_210
*1960 FILLER_4_218
*1961 FILLER_4_226
*1962 FILLER_4_234
*1963 FILLER_4_237
*1964 FILLER_4_245
*1965 FILLER_4_253
*1966 FILLER_4_261
*1967 FILLER_4_269
*1968 FILLER_4_277
*1969 FILLER_4_285
*1970 FILLER_4_293
*1971 FILLER_4_296
*1972 FILLER_4_304
*1973 FILLER_4_312
*1974 FILLER_4_320
*1975 FILLER_4_328
*1976 FILLER_4_336
*1977 FILLER_4_344
*1978 FILLER_4_352
*1979 FILLER_4_355
*1980 FILLER_4_363
*1981 FILLER_4_371
*1982 FILLER_4_379
*1983 FILLER_4_387
*1984 FILLER_4_395
*1985 FILLER_4_403
*1986 FILLER_4_411
*1987 FILLER_4_414
*1988 FILLER_4_422
*1989 FILLER_4_430
*1990 FILLER_4_438
*1991 FILLER_4_446
*1992 FILLER_4_454
*1993 FILLER_4_462
*1994 FILLER_4_470
*1995 FILLER_4_473
*1996 FILLER_4_481
*1997 FILLER_4_489
*1998 FILLER_4_497
*1999 FILLER_4_505
*2000 FILLER_4_513
*2001 FILLER_4_521
*2002 FILLER_4_529
*2003 FILLER_4_532
*2004 FILLER_4_540
*2005 FILLER_4_548
*2006 FILLER_4_556
*2007 FILLER_4_564
*2008 FILLER_4_572
*2009 FILLER_5_4
*2010 FILLER_5_12
*2011 FILLER_5_20
*2012 FILLER_5_28
*2013 FILLER_5_31
*2014 FILLER_5_39
*2015 FILLER_5_47
*2016 FILLER_5_55
*2017 FILLER_5_63
*2018 FILLER_5_71
*2019 FILLER_5_79
*2020 FILLER_5_87
*2021 FILLER_5_90
*2022 FILLER_5_98
*2023 FILLER_5_106
*2024 FILLER_5_114
*2025 FILLER_5_122
*2026 FILLER_5_130
*2027 FILLER_5_138
*2028 FILLER_5_146
*2029 FILLER_5_149
*2030 FILLER_5_157
*2031 FILLER_5_165
*2032 FILLER_5_173
*2033 FILLER_5_181
*2034 FILLER_5_189
*2035 FILLER_5_197
*2036 FILLER_5_205
*2037 FILLER_5_208
*2038 FILLER_5_216
*2039 FILLER_5_224
*2040 FILLER_5_232
*2041 FILLER_5_240
*2042 FILLER_5_248
*2043 FILLER_5_256
*2044 FILLER_5_264
*2045 FILLER_5_267
*2046 FILLER_5_275
*2047 FILLER_5_283
*2048 FILLER_5_291
*2049 FILLER_5_299
*2050 FILLER_5_307
*2051 FILLER_5_315
*2052 FILLER_5_323
*2053 FILLER_5_326
*2054 FILLER_5_334
*2055 FILLER_5_342
*2056 FILLER_5_350
*2057 FILLER_5_358
*2058 FILLER_5_366
*2059 FILLER_5_374
*2060 FILLER_5_382
*2061 FILLER_5_385
*2062 FILLER_5_393
*2063 FILLER_5_401
*2064 FILLER_5_409
*2065 FILLER_5_417