*SPEF "ieee 1481-1999"
*DESIGN "gcd"
*DATE "11:11:11 Fri 11 11, 1111"
*VENDOR "The OpenROAD Project"
*PROGRAM "OpenROAD"
*VERSION "1.0"
*DESIGN_FLOW "NAME_SCOPE LOCAL" "PIN_CAP NONE"
*DIVIDER /
*DELIMITER :
*BUS_DELIMITER []
*T_UNIT 1 NS
*C_UNIT 1 FF
*R_UNIT 1 KOHM
*L_UNIT 1 HENRY

*PORTS
clk I
req_msg[31] I
req_msg[30] I
req_msg[29] I
req_msg[28] I
req_msg[27] I
req_msg[26] I
req_msg[25] I
req_msg[24] I
req_msg[23] I
req_msg[22] I
req_msg[21] I
req_msg[20] I
req_msg[19] I
req_msg[18] I
req_msg[17] I
req_msg[16] I
req_msg[15] I
req_msg[14] I
req_msg[13] I
req_msg[12] I
req_msg[11] I
req_msg[10] I
req_msg[9] I
req_msg[8] I
req_msg[7] I
req_msg[6] I
req_msg[5] I
req_msg[4] I
req_msg[3] I
req_msg[2] I
req_msg[1] I
req_msg[0] I
req_rdy O
req_val I
reset I
resp_msg[15] O
resp_msg[14] O
resp_msg[13] O
resp_msg[12] O
resp_msg[11] O
resp_msg[10] O
resp_msg[9] O
resp_msg[8] O
resp_msg[7] O
resp_msg[6] O
resp_msg[5] O
resp_msg[4] O
resp_msg[3] O
resp_msg[2] O
resp_msg[1] O
resp_msg[0] O
resp_rdy I
resp_val O

*D_NET clk 660.869
*CONN
*P clk I
*I _858_:CK I *D DFF_X1
*I _859_:CK I *D DFF_X1
*I _860_:CK I *D DFF_X1
*I _861_:CK I *D DFF_X1
*I _862_:CK I *D DFF_X1
*I _863_:CK I *D DFF_X1
*I _864_:CK I *D DFF_X1
*I _865_:CK I *D DFF_X1
*I _866_:CK I *D DFF_X1
*I _867_:CK I *D DFF_X1
*I _868_:CK I *D DFF_X1
*I _869_:CK I *D DFF_X1
*I _870_:CK I *D DFF_X1
*I _871_:CK I *D DFF_X1
*I _872_:CK I *D DFF_X1
*I _873_:CK I *D DFF_X1
*I _874_:CK I *D DFF_X1
*I _875_:CK I *D DFF_X1
*I _876_:CK I *D DFF_X1
*I _877_:CK I *D DFF_X1
*I _878_:CK I *D DFF_X1
*I _879_:CK I *D DFF_X1
*I _880_:CK I *D DFF_X1
*I _881_:CK I *D DFF_X1
*I _882_:CK I *D DFF_X1
*I _883_:CK I *D DFF_X1
*I _884_:CK I *D DFF_X1
*I _885_:CK I *D DFF_X1
*I _886_:CK I *D DFF_X1
*I _887_:CK I *D DFF_X1
*I _888_:CK I *D DFF_X1
*I _889_:CK I *D DFF_X1
*I _890_:CK I *D DFF_X1
*I _891_:CK I *D DFF_X1
*I _892_:CK I *D DFF_X1
*CAP
1 clk:1 6.3
2 clk:2 3.21
3 clk:3 0
4 clk:4 7.56
5 clk:5 7.47
6 clk:6 0
7 clk:7 0
8 clk:8 1.06
9 clk:9 2.1
10 clk:10 8.4
11 clk:11 4.2
12 clk:12 6.3
13 clk:13 6.3
14 clk:14 8.4
15 clk:15 0
16 clk:16 5.62
17 clk:17 4.2
18 clk:18 4.95
19 clk:19 4.59
20 clk:20 0
21 clk:21 0
22 clk:22 13.32
23 clk:23 6.3
24 clk:24 6.3
25 clk:25 2.1
26 clk:26 3.55
27 clk:27 0
28 clk:28 0
29 clk:29 6.3
30 clk:30 5.33
31 clk:31 4.25
32 clk:32 2.1
33 clk:33 0
34 clk:34 2.1
35 clk:35 3.6
36 clk:36 0
37 clk:37 10.5
38 clk:38 7.16
39 clk:39 0
40 clk:40 12.6
41 clk:41 4.2
42 clk:42 12.6
43 clk:43 0
44 clk:44 0.71
45 clk:45 14.7
46 clk:46 14.7
47 clk:47 0
48 clk:48 16.8
49 clk:49 6.3
50 clk:50 4.2
51 clk:51 2.1
52 clk:52 2.64
53 clk:53 0
54 clk:54 0
55 clk:55 4.92
56 clk:56 2.1
57 clk:57 5.52
58 clk:58 0
59 clk:59 0
60 clk:60 1.5
61 clk:61 2.1
62 clk:62 4.2
63 clk:63 0
64 clk:64 0.45
65 clk:65 12.6
66 clk:66 6.3
67 clk:67 0.64
68 clk:68 0
69 clk:69 0
70 clk:70 0.83
71 clk:71 2.1
72 clk:72 8.4
73 clk:73 0
74 clk:74 11.23
75 clk:75 10.5
76 clk:76 16.8
77 clk:77 1.29
78 clk:78 0
79 clk:79 6.3
80 clk:80 4.2
81 clk:81 9.78
82 clk:82 0
83 clk:83 4.2
84 clk:84 8.4
85 clk:85 10.5
86 clk:86 0
87 clk:87 0
88 clk:88 0.59
89 clk:89 10.5
90 clk:90 21
91 clk:91 21
92 clk:92 4.2
93 clk:93 4.2
94 clk:94 2.74
95 clk:95 0
96 clk:96 0
97 clk:97 5.32
98 clk:98 15.62
99 clk:99 0
100 clk:100 4.2
101 clk:101 2.1
102 clk:102 8.4
103 clk:103 0.36
104 clk:104 0
105 clk:105 2.1
106 clk:106 6.3
107 clk:107 8.4
108 clk:108 0
109 clk:109 10.5
110 clk:110 15.47
111 clk:111 2.1
112 clk:112 6.3
113 clk:113 10.5
114 clk:114 11.62
115 clk:115 2.1
116 clk:116 2.1
117 clk:117 10.5
118 clk:118 17.29
119 clk:119 0
120 clk:120 0
121 clk:121 2.85
122 clk:122 0
123 clk:123 2.1
124 clk:124 2.1
125 clk:125 6.3
126 clk:126 2.1
127 clk:127 7.05
128 clk:128 0
129 clk:129 3.71
130 clk:130 0
131 clk:131 6.3
132 clk:132 2.1
133 clk:133 4.2
134 clk:134 2.1
135 clk:135 0
136 clk:136 0
137 clk:137 0
138 clk:138 0.103175
139 clk:139 0.134742
*RES
1 clk:1 clk:2 8.4
2 clk:2 clk:3 0.005
3 clk:4 clk:5 25.2
4 clk:5 clk:6 0.005
5 clk:7 clk:8 0.005
6 clk:8 clk:9 0.005
7 clk:9 clk:10 8.4
8 clk:10 clk:11 0.005
9 clk:10 clk:12 25.2
10 clk:12 clk:13 0.005
11 clk:13 clk:14 25.2
12 clk:15 clk:16 0.005
13 clk:16 clk:17 16.8
14 clk:18 clk:19 16.8
15 clk:20 clk:20 0.005
16 clk:21 clk:22 0.005
17 clk:22 clk:23 0.005
18 clk:23 clk:24 25.2
19 clk:24 clk:25 0.005
20 clk:25 clk:26 8.4
21 clk:26 clk:27 0.005
22 clk:28 clk:28 0.005
23 clk:29 clk:30 16.8
24 clk:31 clk:32 8.4
25 clk:31 clk:33 0.005
26 clk:34 clk:35 8.4
27 clk:35 clk:36 0.005
28 clk:37 clk:38 25.2
29 clk:38 clk:39 0.005
30 clk:17 clk:40 0.005
31 clk:40 clk:41 16.8
32 clk:41 clk:42 0.005
33 clk:43 clk:44 0.005
34 clk:44 clk:45 0.005
35 clk:45 clk:46 50.4
36 clk:46 clk:19 0.005
37 clk:47 clk:47 0.005
38 clk:48 clk:49 0.005
39 clk:49 clk:50 16.8
40 clk:50 clk:51 0.005
41 clk:51 clk:52 8.4
42 clk:52 clk:53 0.005
43 clk:54 clk:55 0.005
44 clk:55 clk:56 0.005
45 clk:56 clk:49 8.4
46 clk:57 clk:37 16.8
47 clk:58 clk:58 0.005
48 clk:59 clk:60 0.005
49 clk:60 clk:61 0.005
50 clk:61 clk:62 8.4
51 clk:62 clk:32 0.005
52 clk:63 clk:64 0.005
53 clk:64 clk:65 0.005
54 clk:65 clk:66 25.2
55 clk:66 clk:67 0.005
56 clk:68 clk:68 0.005
57 clk:69 clk:70 0.005
58 clk:70 clk:71 0.005
59 clk:71 clk:72 8.4
60 clk:72 clk:37 0.005
61 clk:73 clk:74 0.005
62 clk:74 clk:1 16.8
63 clk:1 clk:75 0.005
64 clk:75 clk:76 42
65 clk:76 clk:77 0.005
66 clk:78 clk:78 0.005
67 clk:76 clk:79 25.2
68 clk:79 clk:80 0.005
69 clk:80 clk:81 16.8
70 clk:81 clk:82 0.005
71 clk:83 clk:84 0.005
72 clk:84 clk:85 33.6
73 clk:85 clk:4 0.005
74 clk:86 clk:86 0.005
75 clk:87 clk:88 0.005
76 clk:88 clk:89 0.005
77 clk:89 clk:40 33.6
78 clk:90 clk:91 84
79 clk:90 clk:92 0.005
80 clk:92 clk:93 16.8
81 clk:93 clk:94 0.005
82 clk:95 clk:95 0.005
83 clk:83 clk:29 8.4
84 clk:96 clk:97 0.005
85 clk:97 clk:55 16.8
86 clk:98 clk:48 42
87 clk:99 clk:99 0.005
88 clk:100 clk:98 16.8
89 clk:100 clk:101 0.005
90 clk:101 clk:102 8.4
91 clk:102 clk:103 0.005
92 clk:104 clk:104 0.005
93 clk:62 clk:105 8.4
94 clk:105 clk:106 0.005
95 clk:106 clk:22 25.2
96 clk:34 clk:107 0.005
97 clk:107 clk:65 25.2
98 clk:108 clk:108 0.005
99 clk:109 clk:110 42
100 clk:109 clk:111 0.005
101 clk:111 clk:107 8.4
102 clk:72 clk:112 25.2
103 clk:112 clk:113 0.005
104 clk:114 clk:42 42
105 clk:81 clk:11 16.8
106 clk:14 clk:115 0.005
107 clk:115 clk:89 8.4
108 clk:46 clk:116 8.4
109 clk:116 clk:117 0.005
110 clk:117 clk:118 42
111 clk:118 clk:119 0.005
112 clk:120 clk:121 0.005
113 clk:121 clk:83 8.4
114 clk:122 clk:114 0.005
115 clk:114 clk:123 0.005
116 clk:123 clk:124 8.4
117 clk:124 clk:29 0.005
118 clk:102 clk:125 25.2
119 clk:125 clk:126 0.005
120 clk:127 clk:126 8.4
121 clk:127 clk:128 0.005
122 clk:110 clk:127 16.8
123 clk:48 clk:74 25.2
124 clk:42 clk:129 8.4
125 clk:129 clk:130 0.005
126 clk:14 clk:94 8.4
127 clk:22 clk:113 25.2
128 clk:118 clk:131 25.2
129 clk:131 clk:132 0.005
130 clk:85 clk:132 8.4
131 clk:113 clk:133 16.8
132 clk:133 clk:134 0.005
133 clk:134 clk:45 8.4
134 clk:91 clk:135 0.005
135 clk:135 clk:136 0.005
136 clk:136 clk:137 0.003
137 clk:137 clk:138 0.003
138 clk:138 clk:139 0.0063
139 _858_:CK clk:74 2.925
140 _859_:CK clk:2 4.445
141 _860_:CK clk:77 5.165
142 _861_:CK clk:5 4.685
143 _862_:CK clk:8 4.245
144 _863_:CK clk:94 2.565
145 _864_:CK clk:129 6.445
146 _865_:CK clk:18 3.005
147 _866_:CK clk:4 5.045
148 _867_:CK clk:26 5.805
149 _868_:CK clk:114 4.485
150 _869_:CK clk:55 2.885
151 _870_:CK clk:98 3.685
152 _871_:CK clk:103 1.445
153 _872_:CK clk:22 2.885
154 _873_:CK clk:31 8.605
155 _874_:CK clk:64 1.805
156 _875_:CK clk:35 6.005
157 _876_:CK clk:38 3.445
158 _877_:CK clk:30 4.525
159 _878_:CK clk:81 5.525
160 _879_:CK clk:88 2.365
161 _880_:CK clk:16 5.685
162 _881_:CK clk:19 1.565
163 _882_:CK clk:118 1.965
164 _883_:CK clk:44 2.845
165 _884_:CK clk:121 3.005
166 _885_:CK clk:52 2.165
167 _886_:CK clk:97 4.485
168 _887_:CK clk:127 3.005
169 _888_:CK clk:57 5.285
170 _889_:CK clk:60 6.005
171 _890_:CK clk:67 2.565
172 _891_:CK clk:110 3.085
173 _892_:CK clk:70 3.325
174 clk clk:139 0.0019275
*END

*D_NET req_msg[31] 35.4314
*CONN
*P req_msg[31] I
*I buffer1:A I *D BUF_X4
*CAP
1 req_msg[31]:1 0
2 req_msg[31]:2 4.965
3 req_msg[31]:3 4.2
4 req_msg[31]:4 10.5
5 req_msg[31]:5 10.5
6 req_msg[31]:6 2.1
7 req_msg[31]:7 2.1
8 req_msg[31]:8 0
9 req_msg[31]:9 0
10 req_msg[31]:10 0
11 req_msg[31]:11 0.103175
12 req_msg[31]:12 0.150709
*RES
1 req_msg[31]:1 req_msg[31]:2 0.005
2 req_msg[31]:2 req_msg[31]:3 16.8
3 req_msg[31]:3 req_msg[31]:4 0.005
4 req_msg[31]:4 req_msg[31]:5 42
5 req_msg[31]:5 req_msg[31]:6 0.005
6 req_msg[31]:6 req_msg[31]:7 8.4
7 req_msg[31]:7 req_msg[31]:8 0.005
8 req_msg[31]:8 req_msg[31]:9 0.005
9 req_msg[31]:9 req_msg[31]:10 0.003
10 req_msg[31]:10 req_msg[31]:11 0.003
11 req_msg[31]:11 req_msg[31]:12 0.0063
12 buffer1:A req_msg[31]:2 3.065
13 req_msg[31] req_msg[31]:12 0.0029025
*END

*D_NET req_msg[30] 14.0457
*CONN
*P req_msg[30] I
*I buffer2:A I *D BUF_X4
*CAP
1 req_msg[30]:1 6.895
2 req_msg[30]:2 6.3
3 req_msg[30]:3 0
4 req_msg[30]:4 0
5 req_msg[30]:5 0
6 req_msg[30]:6 0
7 req_msg[30]:7 0.103175
8 req_msg[30]:8 0.127864
*RES
1 req_msg[30]:1 req_msg[30]:2 25.2
2 req_msg[30]:3 req_msg[30]:3 0.005
3 req_msg[30]:2 req_msg[30]:4 0.005
4 req_msg[30]:4 req_msg[30]:5 0.005
5 req_msg[30]:5 req_msg[30]:6 0.003
6 req_msg[30]:6 req_msg[30]:7 0.003
7 req_msg[30]:7 req_msg[30]:8 0.0063
8 buffer2:A req_msg[30]:1 2.385
9 req_msg[30] req_msg[30]:8 0.0015075
*END

*D_NET req_msg[29] 15.2414
*CONN
*P req_msg[29] I
*I buffer3:A I *D BUF_X4
*CAP
1 req_msg[29]:1 6.3
2 req_msg[29]:2 7.47
3 req_msg[29]:3 0
4 req_msg[29]:4 0
5 req_msg[29]:5 0
6 req_msg[29]:6 0
7 req_msg[29]:7 0.150709
8 req_msg[29]:8 0.103175
*RES
1 req_msg[29]:1 req_msg[29]:2 25.2
2 req_msg[29]:2 req_msg[29]:3 0.005
3 req_msg[29]:1 req_msg[29]:4 0.005
4 req_msg[29]:4 req_msg[29]:5 0.005
5 req_msg[29]:5 req_msg[29]:6 0.003
6 req_msg[29]:6 req_msg[29]:6 0.003
7 req_msg[29]:7 req_msg[29]:8 0.0063
8 buffer3:A req_msg[29]:2 4.685
9 req_msg[29] req_msg[29]:7 0.0029025
*END

*D_NET req_msg[28] 16.4811
*CONN
*P req_msg[28] I
*I buffer4:A I *D BUF_X4
*CAP
1 req_msg[28]:1 4.2
2 req_msg[28]:2 4.2
3 req_msg[28]:3 2.1
4 req_msg[28]:4 4.02
5 req_msg[28]:5 0
6 req_msg[28]:6 0
7 req_msg[28]:7 0.0205325
8 req_msg[28]:8 0.0139994
*RES
1 req_msg[28]:1 req_msg[28]:2 16.8
2 req_msg[28]:2 req_msg[28]:3 0.005
3 req_msg[28]:3 req_msg[28]:4 8.4
4 req_msg[28]:4 req_msg[28]:5 0.005
5 req_msg[28]:1 req_msg[28]:6 0.005
6 req_msg[28]:6 req_msg[28]:6 0.003
7 req_msg[28]:7 req_msg[28]:8 0.0063
8 buffer4:A req_msg[28]:4 7.685
9 req_msg[28] req_msg[28]:7 0.00294
*END

*D_NET req_msg[27] 14.1301
*CONN
*P req_msg[27] I
*I buffer5:A I *D BUF_X4
*CAP
1 req_msg[27]:1 6.935
2 req_msg[27]:2 6.3
3 req_msg[27]:3 0
4 req_msg[27]:4 0
5 req_msg[27]:5 0
6 req_msg[27]:6 0
7 req_msg[27]:7 0.103175
8 req_msg[27]:8 0.130074
*RES
1 req_msg[27]:1 req_msg[27]:2 25.2
2 req_msg[27]:3 req_msg[27]:3 0.005
3 req_msg[27]:2 req_msg[27]:4 0.005
4 req_msg[27]:4 req_msg[27]:5 0.005
5 req_msg[27]:5 req_msg[27]:6 0.003
6 req_msg[27]:6 req_msg[27]:7 0.003
7 req_msg[27]:7 req_msg[27]:8 0.0063
8 buffer5:A req_msg[27]:1 2.545
9 req_msg[27] req_msg[27]:8 0.0016425
*END

*D_NET req_msg[26] 15.0945
*CONN
*P req_msg[26] I
*I buffer6:A I *D BUF_X4
*CAP
1 req_msg[26]:1 6.3
2 req_msg[26]:2 7.4
3 req_msg[26]:3 0
4 req_msg[26]:4 0
5 req_msg[26]:5 0
6 req_msg[26]:6 0
7 req_msg[26]:7 0.14727
8 req_msg[26]:8 0.103175
*RES
1 req_msg[26]:1 req_msg[26]:2 25.2
2 req_msg[26]:2 req_msg[26]:3 0.005
3 req_msg[26]:1 req_msg[26]:4 0.005
4 req_msg[26]:4 req_msg[26]:5 0.005
5 req_msg[26]:5 req_msg[26]:6 0.003
6 req_msg[26]:6 req_msg[26]:6 0.003
7 req_msg[26]:7 req_msg[26]:8 0.0063
8 buffer6:A req_msg[26]:2 4.405
9 req_msg[26] req_msg[26]:7 0.0026925
*END

*D_NET req_msg[25] 14.6239
*CONN
*P req_msg[25] I
*I buffer7:A I *D BUF_X4
*CAP
1 req_msg[25]:1 7.175
2 req_msg[25]:2 6.3
3 req_msg[25]:3 0
4 req_msg[25]:4 0
5 req_msg[25]:5 0
6 req_msg[25]:6 0
7 req_msg[25]:7 0.103175
8 req_msg[25]:8 0.136953
*RES
1 req_msg[25]:1 req_msg[25]:2 25.2
2 req_msg[25]:3 req_msg[25]:3 0.005
3 req_msg[25]:2 req_msg[25]:4 0.005
4 req_msg[25]:4 req_msg[25]:5 0.005
5 req_msg[25]:5 req_msg[25]:6 0.003
6 req_msg[25]:6 req_msg[25]:7 0.003
7 req_msg[25]:7 req_msg[25]:8 0.0063
8 buffer7:A req_msg[25]:1 3.505
9 req_msg[25] req_msg[25]:8 0.0020625
*END

*D_NET req_msg[24] 19.9497
*CONN
*P req_msg[24] I
*I buffer8:A I *D BUF_X4
*CAP
1 req_msg[24]:1 0
2 req_msg[24]:2 3.65
3 req_msg[24]:3 2.1
4 req_msg[24]:4 6.3
5 req_msg[24]:5 6.3
6 req_msg[24]:6 0
7 req_msg[24]:7 0.0139994
8 req_msg[24]:8 0.0248323
*RES
1 req_msg[24]:1 req_msg[24]:2 0.005
2 req_msg[24]:3 req_msg[24]:2 8.4
3 req_msg[24]:3 req_msg[24]:4 0.005
4 req_msg[24]:4 req_msg[24]:5 25.2
5 req_msg[24]:5 req_msg[24]:6 0.005
6 req_msg[24]:6 req_msg[24]:7 0.003
7 req_msg[24]:7 req_msg[24]:8 0.0063
8 buffer8:A req_msg[24]:2 6.205
9 req_msg[24] req_msg[24]:8 0.004875
*END

*D_NET req_msg[23] 15.1508
*CONN
*P req_msg[23] I
*I buffer9:A I *D BUF_X4
*CAP
1 req_msg[23]:1 7.435
2 req_msg[23]:2 6.3
3 req_msg[23]:3 0
4 req_msg[23]:4 0
5 req_msg[23]:5 0
6 req_msg[23]:6 0
7 req_msg[23]:7 0.103175
8 req_msg[23]:8 0.140392
*RES
1 req_msg[23]:1 req_msg[23]:2 25.2
2 req_msg[23]:3 req_msg[23]:3 0.005
3 req_msg[23]:2 req_msg[23]:4 0.005
4 req_msg[23]:4 req_msg[23]:5 0.005
5 req_msg[23]:5 req_msg[23]:6 0.003
6 req_msg[23]:6 req_msg[23]:7 0.003
7 req_msg[23]:7 req_msg[23]:8 0.0063
8 buffer9:A req_msg[23]:1 4.545
9 req_msg[23] req_msg[23]:8 0.0022725
*END

*D_NET req_msg[22] 34.6087
*CONN
*P req_msg[22] I
*I buffer10:A I *D BUF_X4
*CAP
1 req_msg[22]:1 0
2 req_msg[22]:2 8.4
3 req_msg[22]:3 8.88
4 req_msg[22]:4 8.4
5 req_msg[22]:5 8.4
6 req_msg[22]:6 0
7 req_msg[22]:7 0.0139994
8 req_msg[22]:8 0.0243656
*RES
1 req_msg[22]:1 req_msg[22]:1 0.005
2 req_msg[22]:2 req_msg[22]:3 33.6
3 req_msg[22]:2 req_msg[22]:4 0.005
4 req_msg[22]:4 req_msg[22]:5 33.6
5 req_msg[22]:5 req_msg[22]:6 0.005
6 req_msg[22]:6 req_msg[22]:7 0.003
7 req_msg[22]:7 req_msg[22]:8 0.0063
8 buffer10:A req_msg[22]:3 1.925
9 req_msg[22] req_msg[22]:8 0.004665
*END

*D_NET req_msg[21] 14.6987
*CONN
*P req_msg[21] I
*I buffer11:A I *D BUF_X4
*CAP
1 req_msg[21]:1 0
2 req_msg[21]:2 1.025
3 req_msg[21]:3 6.3
4 req_msg[21]:4 6.3
5 req_msg[21]:5 0
6 req_msg[21]:6 0.0139994
7 req_msg[21]:7 0.0243656
*RES
1 req_msg[21]:1 req_msg[21]:2 0.005
2 req_msg[21]:2 req_msg[21]:3 0.005
3 req_msg[21]:3 req_msg[21]:4 25.2
4 req_msg[21]:4 req_msg[21]:5 0.005
5 req_msg[21]:5 req_msg[21]:6 0.003
6 req_msg[21]:6 req_msg[21]:7 0.0063
7 buffer11:A req_msg[21]:2 4.105
8 req_msg[21] req_msg[21]:7 0.004665
*END

*D_NET req_msg[20] 18.7839
*CONN
*P req_msg[20] I
*I buffer12:A I *D BUF_X4
*CAP
1 req_msg[20]:1 2.1
2 req_msg[20]:2 2.1
3 req_msg[20]:3 2.1
4 req_msg[20]:4 2.1
5 req_msg[20]:5 4.2
6 req_msg[20]:6 5.04
7 req_msg[20]:7 0
8 req_msg[20]:8 0
9 req_msg[20]:9 0
10 req_msg[20]:10 0
11 req_msg[20]:11 0.151938
12 req_msg[20]:12 0.103175
*RES
1 req_msg[20]:1 req_msg[20]:2 8.4
2 req_msg[20]:2 req_msg[20]:3 0.005
3 req_msg[20]:3 req_msg[20]:4 8.4
4 req_msg[20]:4 req_msg[20]:5 0.005
5 req_msg[20]:5 req_msg[20]:6 16.8
6 req_msg[20]:6 req_msg[20]:7 0.005
7 req_msg[20]:1 req_msg[20]:8 0.005
8 req_msg[20]:8 req_msg[20]:9 0.005
9 req_msg[20]:9 req_msg[20]:10 0.003
10 req_msg[20]:10 req_msg[20]:10 0.003
11 req_msg[20]:11 req_msg[20]:12 0.0063
12 buffer12:A req_msg[20]:6 3.365
13 req_msg[20] req_msg[20]:11 0.0029775
*END

*D_NET req_msg[19] 14.657
*CONN
*P req_msg[19] I
*I buffer13:A I *D BUF_X4
*CAP
1 req_msg[19]:1 7.195
2 req_msg[19]:2 6.3
3 req_msg[19]:3 0
4 req_msg[19]:4 0
5 req_msg[19]:5 0
6 req_msg[19]:6 0
7 req_msg[19]:7 0.103175
8 req_msg[19]:8 0.133514
*RES
1 req_msg[19]:1 req_msg[19]:2 25.2
2 req_msg[19]:3 req_msg[19]:3 0.005
3 req_msg[19]:2 req_msg[19]:4 0.005
4 req_msg[19]:4 req_msg[19]:5 0.005
5 req_msg[19]:5 req_msg[19]:6 0.003
6 req_msg[19]:6 req_msg[19]:7 0.003
7 req_msg[19]:7 req_msg[19]:8 0.0063
8 buffer13:A req_msg[19]:1 3.585
9 req_msg[19] req_msg[19]:8 0.0018525
*END

*D_NET req_msg[18] 15.0664
*CONN
*P req_msg[18] I
*I buffer14:A I *D BUF_X4
*CAP
1 req_msg[18]:1 7.395
2 req_msg[18]:2 6.3
3 req_msg[18]:3 0
4 req_msg[18]:4 0
5 req_msg[18]:5 0
6 req_msg[18]:6 0
7 req_msg[18]:7 0.103175
8 req_msg[18]:8 0.138181
*RES
1 req_msg[18]:1 req_msg[18]:2 25.2
2 req_msg[18]:3 req_msg[18]:3 0.005
3 req_msg[18]:2 req_msg[18]:4 0.005
4 req_msg[18]:4 req_msg[18]:5 0.005
5 req_msg[18]:5 req_msg[18]:6 0.003
6 req_msg[18]:6 req_msg[18]:7 0.003
7 req_msg[18]:7 req_msg[18]:8 0.0063
8 buffer14:A req_msg[18]:1 4.385
9 req_msg[18] req_msg[18]:8 0.0021375
*END

*D_NET req_msg[17] 13.9941
*CONN
*P req_msg[17] I
*I buffer15:A I *D BUF_X4
*CAP
1 req_msg[17]:1 0
2 req_msg[17]:2 0.675
3 req_msg[17]:3 6.3
4 req_msg[17]:4 6.3
5 req_msg[17]:5 0
6 req_msg[17]:6 0.0139994
7 req_msg[17]:7 0.0220324
*RES
1 req_msg[17]:1 req_msg[17]:2 0.005
2 req_msg[17]:2 req_msg[17]:3 0.005
3 req_msg[17]:3 req_msg[17]:4 25.2
4 req_msg[17]:4 req_msg[17]:5 0.005
5 req_msg[17]:5 req_msg[17]:6 0.003
6 req_msg[17]:6 req_msg[17]:7 0.0063
7 buffer15:A req_msg[17]:2 2.705
8 req_msg[17] req_msg[17]:7 0.003615
*END

*D_NET req_msg[16] 15.5245
*CONN
*P req_msg[16] I
*I buffer16:A I *D BUF_X4
*CAP
1 req_msg[16]:1 7.615
2 req_msg[16]:2 6.3
3 req_msg[16]:3 0
4 req_msg[16]:4 0
5 req_msg[16]:5 0
6 req_msg[16]:6 0
7 req_msg[16]:7 0.103175
8 req_msg[16]:8 0.14727
*RES
1 req_msg[16]:1 req_msg[16]:2 25.2
2 req_msg[16]:3 req_msg[16]:3 0.005
3 req_msg[16]:2 req_msg[16]:4 0.005
4 req_msg[16]:4 req_msg[16]:5 0.005
5 req_msg[16]:5 req_msg[16]:6 0.003
6 req_msg[16]:6 req_msg[16]:7 0.003
7 req_msg[16]:7 req_msg[16]:8 0.0063
8 buffer16:A req_msg[16]:1 5.265
9 req_msg[16] req_msg[16]:8 0.0026925
*END

*D_NET req_msg[15] 36.6326
*CONN
*P req_msg[15] I
*I buffer17:A I *D BUF_X4
*CAP
1 req_msg[15]:1 6.3
2 req_msg[15]:2 6.3
3 req_msg[15]:3 10.5
4 req_msg[15]:4 10.5
5 req_msg[15]:5 1.385
6 req_msg[15]:6 0
7 req_msg[15]:7 0
8 req_msg[15]:8 0
9 req_msg[15]:9 0
10 req_msg[15]:10 0.103175
11 req_msg[15]:11 0.131303
*RES
1 req_msg[15]:1 req_msg[15]:2 25.2
2 req_msg[15]:1 req_msg[15]:3 0.005
3 req_msg[15]:3 req_msg[15]:4 42
4 req_msg[15]:4 req_msg[15]:5 0.005
5 req_msg[15]:6 req_msg[15]:6 0.005
6 req_msg[15]:2 req_msg[15]:7 0.005
7 req_msg[15]:7 req_msg[15]:8 0.005
8 req_msg[15]:8 req_msg[15]:9 0.003
9 req_msg[15]:9 req_msg[15]:10 0.003
10 req_msg[15]:10 req_msg[15]:11 0.0063
11 buffer17:A req_msg[15]:5 5.545
12 req_msg[15] req_msg[15]:11 0.0017175
*END

*D_NET req_msg[14] 13.847
*CONN
*P req_msg[14] I
*I buffer18:A I *D BUF_X4
*CAP
1 req_msg[14]:1 6.3
2 req_msg[14]:2 6.79
3 req_msg[14]:3 0
4 req_msg[14]:4 0
5 req_msg[14]:5 0
6 req_msg[14]:6 0
7 req_msg[14]:7 0.133514
8 req_msg[14]:8 0.103175
*RES
1 req_msg[14]:1 req_msg[14]:2 25.2
2 req_msg[14]:2 req_msg[14]:3 0.005
3 req_msg[14]:1 req_msg[14]:4 0.005
4 req_msg[14]:4 req_msg[14]:5 0.005
5 req_msg[14]:5 req_msg[14]:6 0.003
6 req_msg[14]:6 req_msg[14]:6 0.003
7 req_msg[14]:7 req_msg[14]:8 0.0063
8 buffer18:A req_msg[14]:2 1.965
9 req_msg[14] req_msg[14]:7 0.0018525
*END

*D_NET req_msg[13] 14.7477
*CONN
*P req_msg[13] I
*I buffer19:A I *D BUF_X4
*CAP
1 req_msg[13]:1 6.3
2 req_msg[13]:2 7.23
3 req_msg[13]:3 0
4 req_msg[13]:4 0
5 req_msg[13]:5 0
6 req_msg[13]:6 0
7 req_msg[13]:7 0.143831
8 req_msg[13]:8 0.103175
*RES
1 req_msg[13]:1 req_msg[13]:2 25.2
2 req_msg[13]:2 req_msg[13]:3 0.005
3 req_msg[13]:1 req_msg[13]:4 0.005
4 req_msg[13]:4 req_msg[13]:5 0.005
5 req_msg[13]:5 req_msg[13]:6 0.003
6 req_msg[13]:6 req_msg[13]:6 0.003
7 req_msg[13]:7 req_msg[13]:8 0.0063
8 buffer19:A req_msg[13]:2 3.725
9 req_msg[13] req_msg[13]:7 0.0024825
*END

*D_NET req_msg[12] 15.3978
*CONN
*P req_msg[12] I
*I buffer20:A I *D BUF_X4
*CAP
1 req_msg[12]:1 0
2 req_msg[12]:2 1.375
3 req_msg[12]:3 6.3
4 req_msg[12]:4 6.3
5 req_msg[12]:5 0
6 req_msg[12]:6 0.0139994
7 req_msg[12]:7 0.023899
*RES
1 req_msg[12]:1 req_msg[12]:2 0.005
2 req_msg[12]:2 req_msg[12]:3 0.005
3 req_msg[12]:3 req_msg[12]:4 25.2
4 req_msg[12]:4 req_msg[12]:5 0.005
5 req_msg[12]:5 req_msg[12]:6 0.003
6 req_msg[12]:6 req_msg[12]:7 0.0063
7 buffer20:A req_msg[12]:2 5.505
8 req_msg[12] req_msg[12]:7 0.004455
*END

*D_NET req_msg[11] 14.9301
*CONN
*P req_msg[11] I
*I buffer21:A I *D BUF_X4
*CAP
1 req_msg[11]:1 6.3
2 req_msg[11]:2 7.32
3 req_msg[11]:3 0
4 req_msg[11]:4 0
5 req_msg[11]:5 0
6 req_msg[11]:6 0
7 req_msg[11]:7 0.145059
8 req_msg[11]:8 0.103175
*RES
1 req_msg[11]:1 req_msg[11]:2 25.2
2 req_msg[11]:2 req_msg[11]:3 0.005
3 req_msg[11]:1 req_msg[11]:4 0.005
4 req_msg[11]:4 req_msg[11]:5 0.005
5 req_msg[11]:5 req_msg[11]:6 0.003
6 req_msg[11]:6 req_msg[11]:6 0.003
7 req_msg[11]:7 req_msg[11]:8 0.0063
8 buffer21:A req_msg[11]:2 4.085
9 req_msg[11] req_msg[11]:7 0.0025575
*END

*D_NET req_msg[10] 15.5601
*CONN
*P req_msg[10] I
*I buffer22:A I *D BUF_X4
*CAP
1 req_msg[10]:1 7.635
2 req_msg[10]:2 6.3
3 req_msg[10]:3 0
4 req_msg[10]:4 0
5 req_msg[10]:5 0
6 req_msg[10]:6 0
7 req_msg[10]:7 0.103175
8 req_msg[10]:8 0.145059
*RES
1 req_msg[10]:1 req_msg[10]:2 25.2
2 req_msg[10]:3 req_msg[10]:3 0.005
3 req_msg[10]:2 req_msg[10]:4 0.005
4 req_msg[10]:4 req_msg[10]:5 0.005
5 req_msg[10]:5 req_msg[10]:6 0.003
6 req_msg[10]:6 req_msg[10]:7 0.003
7 req_msg[10]:7 req_msg[10]:8 0.0063
8 buffer22:A req_msg[10]:1 5.345
9 req_msg[10] req_msg[10]:8 0.0025575
*END

*D_NET req_msg[9] 10.8764
*CONN
*P req_msg[9] I
*I buffer23:A I *D BUF_X4
*CAP
1 req_msg[9]:1 4.2
2 req_msg[9]:2 4.2
3 req_msg[9]:3 1.22
4 req_msg[9]:4 0
5 req_msg[9]:5 0
6 req_msg[9]:6 0.0181992
7 req_msg[9]:7 0.0139994
*RES
1 req_msg[9]:1 req_msg[9]:2 16.8
2 req_msg[9]:2 req_msg[9]:3 0.005
3 req_msg[9]:4 req_msg[9]:4 0.005
4 req_msg[9]:1 req_msg[9]:5 0.005
5 req_msg[9]:5 req_msg[9]:5 0.003
6 req_msg[9]:6 req_msg[9]:7 0.0063
7 buffer23:A req_msg[9]:3 4.885
8 req_msg[9] req_msg[9]:6 0.00189
*END

*D_NET req_msg[8] 23.3245
*CONN
*P req_msg[8] I
*I buffer24:A I *D BUF_X4
*CAP
1 req_msg[8]:1 6.3
2 req_msg[8]:2 6.3
3 req_msg[8]:3 4.2
4 req_msg[8]:4 4.2
5 req_msg[8]:5 1.015
6 req_msg[8]:6 0
7 req_msg[8]:7 0
8 req_msg[8]:8 0
9 req_msg[8]:9 0
10 req_msg[8]:10 0.103175
11 req_msg[8]:11 0.14727
*RES
1 req_msg[8]:1 req_msg[8]:2 25.2
2 req_msg[8]:1 req_msg[8]:3 0.005
3 req_msg[8]:3 req_msg[8]:4 16.8
4 req_msg[8]:4 req_msg[8]:5 0.005
5 req_msg[8]:6 req_msg[8]:6 0.005
6 req_msg[8]:2 req_msg[8]:7 0.005
7 req_msg[8]:7 req_msg[8]:8 0.005
8 req_msg[8]:8 req_msg[8]:9 0.003
9 req_msg[8]:9 req_msg[8]:10 0.003
10 req_msg[8]:10 req_msg[8]:11 0.0063
11 buffer24:A req_msg[8]:5 4.065
12 req_msg[8] req_msg[8]:11 0.0026925
*END

*D_NET req_msg[7] 14.3459
*CONN
*P req_msg[7] I
*I buffer25:A I *D BUF_X4
*CAP
1 req_msg[7]:1 0
2 req_msg[7]:2 0.85
3 req_msg[7]:3 6.3
4 req_msg[7]:4 6.3
5 req_msg[7]:5 0
6 req_msg[7]:6 0.0139994
7 req_msg[7]:7 0.0229657
*RES
1 req_msg[7]:1 req_msg[7]:2 0.005
2 req_msg[7]:2 req_msg[7]:3 0.005
3 req_msg[7]:3 req_msg[7]:4 25.2
4 req_msg[7]:4 req_msg[7]:5 0.005
5 req_msg[7]:5 req_msg[7]:6 0.003
6 req_msg[7]:6 req_msg[7]:7 0.0063
7 buffer25:A req_msg[7]:2 3.405
8 req_msg[7] req_msg[7]:7 0.004035
*END

*D_NET req_msg[6] 11.2301
*CONN
*P req_msg[6] I
*I buffer26:A I *D BUF_X4
*CAP
1 req_msg[6]:1 4.2
2 req_msg[6]:2 4.2
3 req_msg[6]:3 1.395
4 req_msg[6]:4 0
5 req_msg[6]:5 0
6 req_msg[6]:6 0.0200658
7 req_msg[6]:7 0.0139994
*RES
1 req_msg[6]:1 req_msg[6]:2 16.8
2 req_msg[6]:2 req_msg[6]:3 0.005
3 req_msg[6]:4 req_msg[6]:4 0.005
4 req_msg[6]:1 req_msg[6]:5 0.005
5 req_msg[6]:5 req_msg[6]:5 0.003
6 req_msg[6]:6 req_msg[6]:7 0.0063
7 buffer26:A req_msg[6]:3 5.585
8 req_msg[6] req_msg[6]:6 0.00273
*END

*D_NET req_msg[5] 28.567
*CONN
*P req_msg[5] I
*I buffer27:A I *D BUF_X4
*CAP
1 req_msg[5]:1 0
2 req_msg[5]:2 8.4
3 req_msg[5]:3 9.95
4 req_msg[5]:4 2.1
5 req_msg[5]:5 2.1
6 req_msg[5]:6 2.1
7 req_msg[5]:7 2.1
8 req_msg[5]:8 0
9 req_msg[5]:9 0
10 req_msg[5]:10 0
11 req_msg[5]:11 0.133514
12 req_msg[5]:12 0.103175
*RES
1 req_msg[5]:1 req_msg[5]:1 0.005
2 req_msg[5]:2 req_msg[5]:3 33.6
3 req_msg[5]:2 req_msg[5]:4 0.005
4 req_msg[5]:4 req_msg[5]:5 8.4
5 req_msg[5]:5 req_msg[5]:6 0.005
6 req_msg[5]:7 req_msg[5]:6 8.4
7 req_msg[5]:7 req_msg[5]:8 0.005
8 req_msg[5]:8 req_msg[5]:9 0.005
9 req_msg[5]:9 req_msg[5]:10 0.003
10 req_msg[5]:10 req_msg[5]:10 0.003
11 req_msg[5]:11 req_msg[5]:12 0.0063
12 buffer27:A req_msg[5]:3 6.205
13 req_msg[5] req_msg[5]:11 0.0018525
*END

*D_NET req_msg[4] 19.9459
*CONN
*P req_msg[4] I
*I buffer28:A I *D BUF_X4
*CAP
1 req_msg[4]:1 0
2 req_msg[4]:2 3.65
3 req_msg[4]:3 2.1
4 req_msg[4]:4 6.3
5 req_msg[4]:5 6.3
6 req_msg[4]:6 0
7 req_msg[4]:7 0.0139994
8 req_msg[4]:8 0.0229657
*RES
1 req_msg[4]:1 req_msg[4]:2 0.005
2 req_msg[4]:3 req_msg[4]:2 8.4
3 req_msg[4]:3 req_msg[4]:4 0.005
4 req_msg[4]:4 req_msg[4]:5 25.2
5 req_msg[4]:5 req_msg[4]:6 0.005
6 req_msg[4]:6 req_msg[4]:7 0.003
7 req_msg[4]:7 req_msg[4]:8 0.0063
8 buffer28:A req_msg[4]:2 6.205
9 req_msg[4] req_msg[4]:8 0.004035
*END

*D_NET req_msg[3] 15.0764
*CONN
*P req_msg[3] I
*I buffer29:A I *D BUF_X4
*CAP
1 req_msg[3]:1 2.1
2 req_msg[3]:2 2.1
3 req_msg[3]:3 4.2
4 req_msg[3]:4 4.2
5 req_msg[3]:5 1.22
6 req_msg[3]:6 0
7 req_msg[3]:7 0
8 req_msg[3]:8 0
9 req_msg[3]:9 0.0181992
10 req_msg[3]:10 0.0139994
*RES
1 req_msg[3]:1 req_msg[3]:2 8.4
2 req_msg[3]:1 req_msg[3]:3 0.005
3 req_msg[3]:3 req_msg[3]:4 16.8
4 req_msg[3]:4 req_msg[3]:5 0.005
5 req_msg[3]:6 req_msg[3]:6 0.005
6 req_msg[3]:2 req_msg[3]:7 0.005
7 req_msg[3]:7 req_msg[3]:8 0.005
8 req_msg[3]:8 req_msg[3]:8 0.003
9 req_msg[3]:9 req_msg[3]:10 0.0063
10 buffer29:A req_msg[3]:5 4.885
11 req_msg[3] req_msg[3]:9 0.00189
*END

*D_NET req_msg[2] 36.7857
*CONN
*P req_msg[2] I
*I buffer30:A I *D BUF_X4
*CAP
1 req_msg[2]:1 0
2 req_msg[2]:2 5.665
3 req_msg[2]:3 4.2
4 req_msg[2]:4 10.5
5 req_msg[2]:5 10.5
6 req_msg[2]:6 2.1
7 req_msg[2]:7 2.1
8 req_msg[2]:8 0
9 req_msg[2]:9 0
10 req_msg[2]:10 0
11 req_msg[2]:11 0.103175
12 req_msg[2]:12 0.127864
*RES
1 req_msg[2]:1 req_msg[2]:2 0.005
2 req_msg[2]:2 req_msg[2]:3 16.8
3 req_msg[2]:3 req_msg[2]:4 0.005
4 req_msg[2]:4 req_msg[2]:5 42
5 req_msg[2]:5 req_msg[2]:6 0.005
6 req_msg[2]:6 req_msg[2]:7 8.4
7 req_msg[2]:7 req_msg[2]:8 0.005
8 req_msg[2]:8 req_msg[2]:9 0.005
9 req_msg[2]:9 req_msg[2]:10 0.003
10 req_msg[2]:10 req_msg[2]:11 0.003
11 req_msg[2]:11 req_msg[2]:12 0.0063
12 buffer30:A req_msg[2]:2 5.865
13 req_msg[2] req_msg[2]:12 0.0015075
*END

*D_NET req_msg[1] 14.2895
*CONN
*P req_msg[1] I
*I buffer31:A I *D BUF_X4
*CAP
1 req_msg[1]:1 6.3
2 req_msg[1]:2 7.01
3 req_msg[1]:3 0
4 req_msg[1]:4 0
5 req_msg[1]:5 0
6 req_msg[1]:6 0
7 req_msg[1]:7 0.134742
8 req_msg[1]:8 0.103175
*RES
1 req_msg[1]:1 req_msg[1]:2 25.2
2 req_msg[1]:2 req_msg[1]:3 0.005
3 req_msg[1]:1 req_msg[1]:4 0.005
4 req_msg[1]:4 req_msg[1]:5 0.005
5 req_msg[1]:5 req_msg[1]:6 0.003
6 req_msg[1]:6 req_msg[1]:6 0.003
7 req_msg[1]:7 req_msg[1]:8 0.0063
8 buffer31:A req_msg[1]:2 2.845
9 req_msg[1] req_msg[1]:7 0.0019275
*END

*D_NET req_msg[0] 14.345
*CONN
*P req_msg[0] I
*I buffer32:A I *D BUF_X4
*CAP
1 req_msg[0]:1 0
2 req_msg[0]:2 0.85
3 req_msg[0]:3 6.3
4 req_msg[0]:4 6.3
5 req_msg[0]:5 0
6 req_msg[0]:6 0.0139994
7 req_msg[0]:7 0.022499
*RES
1 req_msg[0]:1 req_msg[0]:2 0.005
2 req_msg[0]:2 req_msg[0]:3 0.005
3 req_msg[0]:3 req_msg[0]:4 25.2
4 req_msg[0]:4 req_msg[0]:5 0.005
5 req_msg[0]:5 req_msg[0]:6 0.003
6 req_msg[0]:6 req_msg[0]:7 0.0063
7 buffer32:A req_msg[0]:2 3.405
8 req_msg[0] req_msg[0]:7 0.003825
*END

*D_NET req_rdy 35.6583
*CONN
*P req_rdy O
*I buffer36:Z O *D BUF_X4
*CAP
1 req_rdy:1 6.3
2 req_rdy:2 6.3
3 req_rdy:3 10.5
4 req_rdy:4 10.5
5 req_rdy:5 0.875
6 req_rdy:6 0
7 req_rdy:7 0
8 req_rdy:8 0
9 req_rdy:9 0
10 req_rdy:10 0.154149
11 req_rdy:11 0.103175
*RES
1 req_rdy:1 req_rdy:2 25.2
2 req_rdy:2 req_rdy:3 0.005
3 req_rdy:3 req_rdy:4 42
4 req_rdy:4 req_rdy:5 0.005
5 req_rdy:6 req_rdy:6 0.005
6 req_rdy:1 req_rdy:7 0.005
7 req_rdy:7 req_rdy:8 0.005
8 req_rdy:8 req_rdy:9 0.003
9 req_rdy:9 req_rdy:9 0.003
10 req_rdy:10 req_rdy:11 0.0063
11 buffer36:Z req_rdy:5 3.505
12 req_rdy req_rdy:10 0.0031125
*END

*D_NET req_val 26.5569
*CONN
*P req_val I
*I buffer33:A I *D BUF_X4
*CAP
1 req_val:1 0
2 req_val:2 4.855
3 req_val:3 4.2
4 req_val:4 8.4
5 req_val:5 8.4
6 req_val:6 0
7 req_val:7 0.0139994
8 req_val:8 0.0234323
*RES
1 req_val:1 req_val:2 0.005
2 req_val:2 req_val:3 16.8
3 req_val:3 req_val:4 0.005
4 req_val:4 req_val:5 33.6
5 req_val:5 req_val:6 0.005
6 req_val:6 req_val:7 0.003
7 req_val:7 req_val:8 0.0063
8 buffer33:A req_val:2 2.625
9 req_val req_val:8 0.004245
*END

*D_NET reset 11.9292
*CONN
*P reset I
*I buffer34:A I *D BUF_X4
*CAP
1 reset:1 4.2
2 reset:2 4.2
3 reset:3 1.745
4 reset:4 0
5 reset:5 0
6 reset:6 0.0195992
7 reset:7 0.0139994
*RES
1 reset:1 reset:2 16.8
2 reset:2 reset:3 0.005
3 reset:4 reset:4 0.005
4 reset:1 reset:5 0.005
5 reset:5 reset:5 0.003
6 reset:6 reset:7 0.0063
7 buffer34:A reset:3 6.985
8 reset reset:6 0.00252
*END

*D_NET resp_msg[15] 28.6101
*CONN
*P resp_msg[15] O
*I buffer37:Z O *D BUF_X4
*CAP
1 resp_msg[15]:1 6.3
2 resp_msg[15]:2 6.3
3 resp_msg[15]:3 4.2
4 resp_msg[15]:4 4.2
5 resp_msg[15]:5 2.1
6 resp_msg[15]:6 3.675
7 resp_msg[15]:7 0
8 resp_msg[15]:8 0
9 resp_msg[15]:9 0
10 resp_msg[15]:10 0
11 resp_msg[15]:11 0.130074
12 resp_msg[15]:12 0.103175
*RES
1 resp_msg[15]:1 resp_msg[15]:2 25.2
2 resp_msg[15]:2 resp_msg[15]:3 0.005
3 resp_msg[15]:3 resp_msg[15]:4 16.8
4 resp_msg[15]:4 resp_msg[15]:5 0.005
5 resp_msg[15]:5 resp_msg[15]:6 8.4
6 resp_msg[15]:6 resp_msg[15]:7 0.005
7 resp_msg[15]:1 resp_msg[15]:8 0.005
8 resp_msg[15]:8 resp_msg[15]:9 0.005
9 resp_msg[15]:9 resp_msg[15]:10 0.003
10 resp_msg[15]:10 resp_msg[15]:10 0.003
11 resp_msg[15]:11 resp_msg[15]:12 0.0063
12 buffer37:Z resp_msg[15]:6 6.305
13 resp_msg[15] resp_msg[15]:11 0.0016425
*END

*D_NET resp_msg[14] 19.3732
*CONN
*P resp_msg[14] O
*I buffer38:Z O *D BUF_X4
*CAP
1 resp_msg[14]:1 2.1
2 resp_msg[14]:2 2.1
3 resp_msg[14]:3 2.1
4 resp_msg[14]:4 2.1
5 resp_msg[14]:5 4.2
6 resp_msg[14]:6 5.345
7 resp_msg[14]:7 0
8 resp_msg[14]:8 0
9 resp_msg[14]:9 0
10 resp_msg[14]:10 0
11 resp_msg[14]:11 0.14162
12 resp_msg[14]:12 0.103175
*RES
1 resp_msg[14]:1 resp_msg[14]:2 8.4