*SPEF "ieee 1481-1999"
*DESIGN "reg1"
*DATE "11:11:11 Fri 11 11, 1111"
*VENDOR "The OpenROAD Project"
*PROGRAM "OpenROAD"
*VERSION "1.0"
*DESIGN_FLOW "NAME_SCOPE LOCAL" "PIN_CAP NONE"
*DIVIDER /
*DELIMITER :
*BUS_DELIMITER []
*T_UNIT 1 NS
*C_UNIT 1 FF
*R_UNIT 1 KOHM
*L_UNIT 1 HENRY

*PORTS
in1 I
clk I
out O

*D_NET in1 28.971
*CONN
*I r1:D I *D DFF_X1
*P in1 I
*I r2:D I *D DFF_X1
*CAP
1 in1:0 7.2699
2 in1:1 3.6078
3 in1:2 3.6078
4 in1:3 14.4855
*RES
1 in1:0 in1:0 1e-06
2 in1 in1:0 1e-06
3 in1:1 in1:3 0.6516
4 r1:D in1:1 1e-06
5 in1:2 in1:3 0.6516
6 r2:D in1:2 1e-06
7 in1:3 in1:0 1.31301
*END

*D_NET out 33.9494
*CONN
*P out O
*I r3:Q O *D DFF_X1
*CAP
1 out:0 16.9747
2 out:1 16.9747
*RES
1 out:0 out:1 3.06578
2 out out:0 1e-06
3 r3:Q out:1 1e-06
4 out:1 out:1 1e-06
*END

*D_NET r1q 14.6426
*CONN
*I r1:Q O *D DFF_X1
*I u2:A1 I *D AND2_X1
*CAP
1 r1q:0 7.32131
2 r1q:1 7.32131
*RES
1 r1q:0 r1q:1 1.32229
2 u2:A1 r1q:0 1e-06
3 r1:Q r1q:1 1e-06
4 r1q:1 r1q:1 1e-06
*END

*D_NET r2q 14.22
*CONN
*I r2:Q O *D DFF_X1
*I u1:A I *D BUF_X1
*CAP
1 r2q:0 7.10998
2 r2q:1 7.10998
*RES
1 r2q:0 r2q:0 1e-06
2 r2:Q r2q:0 1e-06
3 r2q:1 r2q:0 1.28412
4 u1:A r2q:1 1e-06
*END

*D_NET u1z 43.297
*CONN
*I u1:Z O *D BUF_X1
*I u2:A2 I *D AND2_X1
*CAP
1 u1z:0 21.6485
2 u1z:1 21.6485
*RES
1 u1z:0 u1z:1 3.90991
2 u2:A2 u1z:0 1e-06
3 u1:Z u1z:1 1e-06
4 u1z:1 u1z:1 1e-06
*END

*D_NET u2z 21.6713
*CONN
*I r3:D I *D DFF_X1
*I u2:ZN O *D AND2_X1
*CAP
1 u2z:0 10.8357
2 u2z:1 10.8357
*RES
1 u2z:0 u2z:0 1e-06
2 u2:ZN u2z:0 1e-06
3 u2z:1 u2z:0 1.95702
4 r3:D u2z:1 1e-06
*END

