*SPEF "ieee 1481-1999"
*DESIGN "reg1"
*DATE "11:11:11 Fri 11 11, 1111"
*VENDOR "The OpenROAD Project"
*PROGRAM "OpenROAD"
*VERSION "1.0"
*DESIGN_FLOW "NAME_SCOPE LOCAL" "PIN_CAP NONE"
*DIVIDER /
*DELIMITER :
*BUS_DELIMITER []
*T_UNIT 1 NS
*C_UNIT 1 FF
*R_UNIT 1 KOHM
*L_UNIT 1 HENRY

*PORTS
in1 I
clk I
out O

*D_NET in1 19.314
*CONN
*I r1:D I *D DFF_X1
*P in1 I
*I r2:D I *D DFF_X1
*CAP
1 in1:0 4.8466
2 in1:1 2.4052
3 in1:2 2.4052
4 in1:3 9.657
*RES
1 in1:0 in1:0 1e-06
2 in1 in1:0 1e-06
3 in1:1 in1:3 0.4344
4 r1:D in1:1 1e-06
5 in1:2 in1:3 0.4344
6 r2:D in1:2 1e-06
7 in1:3 in1:0 0.875338
*END

*D_NET out 22.6329
*CONN
*P out O
*I r3:Q O *D DFF_X1
*CAP
1 out:0 11.3165
2 out:1 11.3165
*RES
1 out:0 out:1 2.04385
2 out out:0 1e-06
3 r3:Q out:1 1e-06
4 out:1 out:1 1e-06
*END

*D_NET r1q 9.76174
*CONN
*I r1:Q O *D DFF_X1
*I u2:A1 I *D AND2_X1
*CAP
1 r1q:0 4.88087
2 r1q:1 4.88087
*RES
1 r1q:0 r1q:1 0.881528
2 u2:A1 r1q:0 1e-06
3 r1:Q r1q:1 1e-06
4 r1q:1 r1q:1 1e-06
*END

*D_NET r2q 9.47998
*CONN
*I r2:Q O *D DFF_X1
*I u1:A I *D BUF_X1
*CAP
1 r2q:0 4.73999
2 r2q:1 4.73999
*RES
1 r2q:0 r2q:0 1e-06
2 r2:Q r2q:0 1e-06
3 r2q:1 r2q:0 0.856083
4 u1:A r2q:1 1e-06
*END

*D_NET u1z 28.8647
*CONN
*I u1:Z O *D BUF_X1
*I u2:A2 I *D AND2_X1
*CAP
1 u1z:0 14.4323
2 u1z:1 14.4323
*RES
1 u1z:0 u1z:1 2.60661
2 u2:A2 u1z:0 1e-06
3 u1:Z u1z:1 1e-06
4 u1z:1 u1z:1 1e-06
*END

*D_NET u2z 14.4476
*CONN
*I r3:D I *D DFF_X1
*I u2:ZN O *D AND2_X1
*CAP
1 u2z:0 7.22378
2 u2z:1 7.22378
*RES
1 u2z:0 u2z:0 1e-06
2 u2:ZN u2z:0 1e-06
3 u2z:1 u2z:0 1.30468
4 r3:D u2z:1 1e-06
*END

