$ CDL Netlist generated by OpenDB

*.BUSDELIMITER [

.SUBCKT gcd clk req_msg[31] req_msg[30] req_msg[29] req_msg[28]
+ req_msg[27] req_msg[26] req_msg[25] req_msg[24] req_msg[23]
+ req_msg[22] req_msg[21] req_msg[20] req_msg[19] req_msg[18]
+ req_msg[17] req_msg[16] req_msg[15] req_msg[14] req_msg[13]
+ req_msg[12] req_msg[11] req_msg[10] req_msg[9] req_msg[8]
+ req_msg[7] req_msg[6] req_msg[5] req_msg[4] req_msg[3] req_msg[2]
+ req_msg[1] req_msg[0] req_rdy req_val reset resp_msg[15] resp_msg[14]
+ resp_msg[13] resp_msg[12] resp_msg[11] resp_msg[10] resp_msg[9]
+ resp_msg[8] resp_msg[7] resp_msg[6] resp_msg[5] resp_msg[4]
+ resp_msg[3] resp_msg[2] resp_msg[1] resp_msg[0] resp_rdy resp_val
X_297_ VSS VDD _054_ ctrl.state.out[2] INV_X1
X_298_ VSS VDD resp_val _005_ ctrl.state.out[1] _054_ AND3_X1
X_299_ VSS VDD resp_msg[0] dpath.a_lt_b$in1[0] dpath.a_lt_b$in0[0]
+ XOR2_X1
X_300_ VSS VDD _055_ dpath.a_lt_b$in1[4] dpath.a_lt_b$in1[5]
+ dpath.a_lt_b$in1[6] dpath.a_lt_b$in1[7] NOR4_X1
X_301_ VSS VDD _056_ dpath.a_lt_b$in1[3] INV_X1
X_302_ VSS VDD _057_ dpath.a_lt_b$in1[2] INV_X4
X_303_ VSS VDD _058_ dpath.a_lt_b$in1[0] dpath.a_lt_b$in1[1]
+ NOR2_X1
X_304_ VSS VDD _059_ _058_ _057_ _056_ _055_ NAND4_X1
X_305_ VSS VDD _060_ dpath.a_lt_b$in1[8] dpath.a_lt_b$in1[9]
+ dpath.a_lt_b$in1[10] dpath.a_lt_b$in1[11] NOR4_X1
X_306_ VSS VDD _061_ dpath.a_lt_b$in1[12] dpath.a_lt_b$in1[13]
+ dpath.a_lt_b$in1[14] dpath.a_lt_b$in1[15] NOR4_X1
X_307_ VSS VDD _062_ _061_ _060_ NAND2_X1
X_308_ VSS VDD _063_ _062_ _059_ NOR2_X1
X_309_ VSS VDD _064_ reset INV_X1
X_310_ VSS VDD _065_ _004_ INV_X1
X_311_ VSS VDD _066_ _065_ _064_ _063_ NAND3_X1
X_312_ VSS VDD _067_ resp_rdy resp_val AND2_X1
X_313_ VSS VDD _068_ _003_ reset _067_ OR3_X1
X_314_ VSS VDD _001_ _068_ _066_ NAND2_X1
X_315_ VSS VDD _069_ _062_ _059_ _065_ _064_ OAI211_X1
X_316_ VSS VDD _070_ _005_ INV_X2
X_317_ VSS VDD _071_ _070_ BUF_X4
X_318_ VSS VDD _072_ req_rdy BUF_X4
X_319_ VSS VDD _073_ req_val _072_ _071_ _064_ NAND4_X1
X_320_ VSS VDD _002_ _073_ _069_ NAND2_X1
X_321_ VSS VDD _074_ resp_rdy _064_ resp_val NAND3_X1
X_322_ VSS VDD _075_ _003_ _074_ NOR2_X1
X_323_ VSS VDD _076_ req_val _072_ _005_ reset AOI211_X1
X_324_ VSS VDD _000_ _076_ reset _075_ OR3_X1
X_325_ VSS VDD _077_ _054_ BUF_X4
X_326_ VSS VDD _078_ _071_ _077_ req_msg[16] OAI21_X1
X_327_ VSS VDD _079_ dpath.a_lt_b$in0[15] INV_X1
X_328_ VSS VDD _080_ dpath.a_lt_b$in1[15] _079_ NAND2_X1
X_329_ VSS VDD _081_ dpath.a_lt_b$in1[7] dpath.a_lt_b$in0[7]
+ XNOR2_X2
X_330_ VSS VDD _082_ dpath.a_lt_b$in1[6] dpath.a_lt_b$in0[6]
+ XNOR2_X2
X_331_ VSS VDD _083_ _082_ _081_ AND2_X4
X_332_ VSS VDD _084_ dpath.a_lt_b$in1[3] dpath.a_lt_b$in0[3]
+ XNOR2_X2
X_333_ VSS VDD _085_ dpath.a_lt_b$in1[2] dpath.a_lt_b$in0[2]
+ XNOR2_X2
X_334_ VSS VDD _086_ _085_ _084_ AND2_X2
X_335_ VSS VDD _087_ dpath.a_lt_b$in1[5] dpath.a_lt_b$in0[5]
+ XNOR2_X2
X_336_ VSS VDD _088_ dpath.a_lt_b$in1[4] dpath.a_lt_b$in0[4]
+ XNOR2_X2
X_337_ VSS VDD _089_ _088_ _087_ AND2_X4
X_338_ VSS VDD _090_ _089_ _086_ _083_ NAND3_X2
X_339_ VSS VDD _091_ dpath.a_lt_b$in1[1] INV_X16
X_340_ VSS VDD _092_ dpath.a_lt_b$in0[1] _091_ AND2_X4
X_341_ VSS VDD _093_ dpath.a_lt_b$in0[1] _091_ NOR2_X1
X_342_ VSS VDD _094_ dpath.a_lt_b$in0[0] INV_X1
X_343_ VSS VDD _095_ dpath.a_lt_b$in1[0] _094_ _093_ NOR3_X1
X_344_ VSS VDD _096_ _095_ _092_ _090_ OR3_X4
X_345_ VSS VDD _097_ dpath.a_lt_b$in0[4] INV_X2
X_346_ VSS VDD _098_ dpath.a_lt_b$in1[4] _097_ _087_ AND3_X1
X_347_ VSS VDD _099_ dpath.a_lt_b$in0[5] INV_X1
X_348_ VSS VDD _100_ dpath.a_lt_b$in1[5] _099_ AND2_X1
X_349_ VSS VDD _101_ _100_ _098_ _083_ OAI21_X1
X_350_ VSS VDD _102_ dpath.a_lt_b$in1[7] INV_X1
X_351_ VSS VDD _103_ dpath.a_lt_b$in0[7] _102_ NOR2_X1
X_352_ VSS VDD _104_ _103_ INV_X1
X_353_ VSS VDD _105_ dpath.a_lt_b$in0[6] INV_X16
X_354_ VSS VDD _106_ dpath.a_lt_b$in1[6] _105_ _081_ NAND3_X1
X_355_ VSS VDD _107_ _106_ _104_ _101_ AND3_X1
X_356_ VSS VDD _108_ dpath.a_lt_b$in0[3] _056_ NOR2_X1
X_357_ VSS VDD _109_ _056_ dpath.a_lt_b$in0[3] _057_ dpath.a_lt_b$in0[2]
+ AOI211_X1
X_358_ VSS VDD _110_ _109_ _108_ _089_ _083_ OAI211_X1
X_359_ VSS VDD _111_ _110_ _107_ _096_ NAND3_X1
X_360_ VSS VDD _112_ dpath.a_lt_b$in1[10] dpath.a_lt_b$in0[10]
+ XNOR2_X2
X_361_ VSS VDD _113_ dpath.a_lt_b$in1[11] dpath.a_lt_b$in0[11]
+ XNOR2_X2
X_362_ VSS VDD _114_ _113_ _112_ AND2_X4
X_363_ VSS VDD _115_ dpath.a_lt_b$in1[9] dpath.a_lt_b$in0[9]
+ XNOR2_X2
X_364_ VSS VDD _116_ dpath.a_lt_b$in1[8] dpath.a_lt_b$in0[8]
+ XNOR2_X1
X_365_ VSS VDD _117_ _116_ _115_ _114_ AND3_X4
X_366_ VSS VDD _118_ dpath.a_lt_b$in1[14] dpath.a_lt_b$in0[14]
+ XNOR2_X1
X_367_ VSS VDD _119_ dpath.a_lt_b$in1[15] dpath.a_lt_b$in0[15]
+ XNOR2_X2
X_368_ VSS VDD _120_ _119_ _118_ NAND2_X1
X_369_ VSS VDD _121_ dpath.a_lt_b$in1[13] dpath.a_lt_b$in0[13]
+ XNOR2_X2
X_370_ VSS VDD _122_ _121_ INV_X1
X_371_ VSS VDD _123_ dpath.a_lt_b$in1[12] dpath.a_lt_b$in0[12]
+ XNOR2_X2
X_372_ VSS VDD _124_ _123_ INV_X2
X_373_ VSS VDD _125_ _124_ _122_ _120_ NOR3_X1
X_374_ VSS VDD _126_ _125_ _117_ AND2_X1
X_375_ VSS VDD _127_ _126_ _111_ NAND2_X1
X_376_ VSS VDD _128_ dpath.a_lt_b$in0[8] INV_X1
X_377_ VSS VDD _129_ dpath.a_lt_b$in1[8] _128_ _115_ AND3_X1
X_378_ VSS VDD _130_ dpath.a_lt_b$in0[9] INV_X1
X_379_ VSS VDD _131_ dpath.a_lt_b$in1[9] _130_ AND2_X1
X_380_ VSS VDD _132_ _131_ _129_ _114_ OAI21_X1
X_381_ VSS VDD _133_ dpath.a_lt_b$in0[11] INV_X1
X_382_ VSS VDD _134_ dpath.a_lt_b$in1[11] _133_ NOR2_X1
X_383_ VSS VDD _135_ dpath.a_lt_b$in0[10] INV_X1
X_384_ VSS VDD _136_ dpath.a_lt_b$in1[10] _135_ dpath.a_lt_b$in1[11]
+ _133_ AOI22_X1
X_385_ VSS VDD _137_ _136_ _134_ _132_ OAI21_X1
X_386_ VSS VDD _138_ _125_ _137_ NAND2_X1
X_387_ VSS VDD _139_ dpath.a_lt_b$in0[14] INV_X1
X_388_ VSS VDD _140_ dpath.a_lt_b$in1[14] _139_ _119_ NAND3_X1
X_389_ VSS VDD _141_ _140_ _138_ _127_ _080_ AND4_X4
X_390_ VSS VDD _142_ _005_ ctrl.state.out[2] AND2_X1
X_391_ VSS VDD _143_ dpath.a_lt_b$in0[13] INV_X1
X_392_ VSS VDD _144_ dpath.a_lt_b$in1[13] _143_ NOR2_X1
X_393_ VSS VDD _145_ dpath.a_lt_b$in0[12] INV_X1
X_394_ VSS VDD _146_ dpath.a_lt_b$in1[12] _145_ dpath.a_lt_b$in1[13]
+ _143_ AOI22_X1
X_395_ VSS VDD _147_ _146_ _144_ _120_ OR3_X1
X_396_ VSS VDD _148_ _147_ _142_ resp_msg[0] _141_ NAND4_X1
X_397_ VSS VDD _149_ _089_ _083_ AND2_X2
X_398_ VSS VDD _150_ _086_ _125_ _149_ _117_ NAND4_X1
X_399_ VSS VDD _151_ dpath.a_lt_b$in1[1] dpath.a_lt_b$in0[1]
+ XNOR2_X2
X_400_ VSS VDD _152_ _151_ INV_X1
X_401_ VSS VDD _153_ _152_ resp_msg[0] _150_ NOR3_X4
X_402_ VSS VDD _154_ _147_ _141_ _153_ AOI21_X4
X_403_ VSS VDD _155_ ctrl.state.out[2] _154_ NAND2_X4
X_404_ VSS VDD _156_ _070_ _155_ OR2_X4
X_405_ VSS VDD _157_ _156_ BUF_X8
X_406_ VSS VDD _158_ _006_ _157_ _148_ _078_ OAI211_X2
X_407_ VSS VDD _159_ req_rdy ctrl.state.out[2] OR2_X1
X_408_ VSS VDD _160_ _159_ BUF_X4
X_409_ VSS VDD _161_ _160_ BUF_X4
X_410_ VSS VDD _022_ _161_ _158_ dpath.a_lt_b$in0[0] MUX2_X1
X_411_ VSS VDD _162_ _071_ _077_ req_msg[17] OAI21_X1
X_412_ VSS VDD _163_ _142_ INV_X1
X_413_ VSS VDD _164_ _163_ _154_ NOR2_X4
X_414_ VSS VDD _165_ _164_ BUF_X8
X_415_ VSS VDD _166_ dpath.a_lt_b$in1[0] _094_ NAND2_X2
X_416_ VSS VDD resp_msg[1] _166_ _151_ XOR2_X1
X_417_ VSS VDD _167_ resp_msg[1] _165_ NAND2_X2
X_418_ VSS VDD _168_ _007_ _157_ _167_ _162_ OAI211_X1
X_419_ VSS VDD _029_ _161_ _168_ dpath.a_lt_b$in0[1] MUX2_X1
X_420_ VSS VDD _169_ _071_ _077_ req_msg[18] OAI21_X1
X_421_ VSS VDD _170_ _166_ _151_ _092_ AOI21_X4
X_422_ VSS VDD resp_msg[2] _085_ _170_ XNOR2_X1
X_423_ VSS VDD _171_ resp_msg[2] _165_ NAND2_X2
X_424_ VSS VDD _172_ _008_ _157_ _171_ _169_ OAI211_X1
X_425_ VSS VDD _030_ _161_ _172_ dpath.a_lt_b$in0[2] MUX2_X1
X_426_ VSS VDD _173_ _071_ _077_ req_msg[19] OAI21_X1
X_427_ VSS VDD _174_ _170_ INV_X4
X_428_ VSS VDD _175_ _085_ _174_ AND2_X1
X_429_ VSS VDD _176_ dpath.a_lt_b$in0[2] _057_ AND2_X4
X_430_ VSS VDD _177_ _176_ _175_ NOR2_X1
X_431_ VSS VDD resp_msg[3] _084_ _177_ XNOR2_X1
X_432_ VSS VDD _178_ resp_msg[3] _165_ NAND2_X2
X_433_ VSS VDD _179_ _009_ _157_ _178_ _173_ OAI211_X1
X_434_ VSS VDD _031_ _161_ _179_ dpath.a_lt_b$in0[3] MUX2_X1
X_435_ VSS VDD _180_ _071_ _077_ req_msg[20] OAI21_X1
X_436_ VSS VDD _181_ _176_ _084_ AND2_X2
X_437_ VSS VDD _182_ _056_ dpath.a_lt_b$in0[3] _181_ AOI21_X4
X_438_ VSS VDD _183_ _086_ _174_ NAND2_X2
X_439_ VSS VDD _184_ _183_ _182_ NAND2_X4
X_440_ VSS VDD resp_msg[4] _088_ _184_ XOR2_X1
X_441_ VSS VDD _185_ resp_msg[4] _165_ NAND2_X2
X_442_ VSS VDD _186_ _010_ _157_ _185_ _180_ OAI211_X1
X_443_ VSS VDD _032_ _161_ _186_ dpath.a_lt_b$in0[4] MUX2_X1
X_444_ VSS VDD _187_ _071_ _077_ req_msg[21] OAI21_X1
X_445_ VSS VDD _188_ _088_ _184_ AND2_X1
X_446_ VSS VDD _189_ dpath.a_lt_b$in1[4] _097_ NOR2_X1
X_447_ VSS VDD _190_ _189_ _087_ _188_ NOR3_X1
X_448_ VSS VDD resp_msg[5] _184_ _089_ _189_ _087_ _190_ AOI221_X4
X_449_ VSS VDD _191_ resp_msg[5] _165_ NAND2_X2
X_450_ VSS VDD _192_ _011_ _157_ _191_ _187_ OAI211_X1
X_451_ VSS VDD _033_ _161_ _192_ dpath.a_lt_b$in0[5] MUX2_X1
X_452_ VSS VDD _193_ _071_ _077_ req_msg[22] OAI21_X1
X_453_ VSS VDD _194_ _189_ _087_ NAND2_X1
X_454_ VSS VDD _195_ dpath.a_lt_b$in1[5] _099_ _194_ OAI21_X1
X_455_ VSS VDD _196_ _089_ _184_ _195_ AOI21_X1
X_456_ VSS VDD resp_msg[6] _082_ _196_ XNOR2_X1
X_457_ VSS VDD _197_ resp_msg[6] _165_ NAND2_X2
X_458_ VSS VDD _198_ _012_ _157_ _197_ _193_ OAI211_X1
X_459_ VSS VDD _034_ _160_ _198_ dpath.a_lt_b$in0[6] MUX2_X1
X_460_ VSS VDD _199_ _070_ _077_ req_msg[23] OAI21_X1
X_461_ VSS VDD _200_ dpath.a_lt_b$in1[6] _105_ AND2_X1
X_462_ VSS VDD _201_ dpath.a_lt_b$in1[6] _105_ NOR2_X4
X_463_ VSS VDD _202_ _201_ _200_ _196_ NOR3_X1
X_464_ VSS VDD _203_ _201_ _202_ NOR2_X1
X_465_ VSS VDD resp_msg[7] _081_ _203_ XNOR2_X1
X_466_ VSS VDD _204_ resp_msg[7] _165_ NAND2_X2
X_467_ VSS VDD _205_ _013_ _157_ _204_ _199_ OAI211_X1
X_468_ VSS VDD _035_ _160_ _205_ dpath.a_lt_b$in0[7] MUX2_X1
X_469_ VSS VDD _206_ _070_ _054_ req_msg[24] OAI21_X1
X_470_ VSS VDD _207_ _149_ _184_ NAND2_X2
X_471_ VSS VDD _208_ _201_ _081_ AND2_X2
X_472_ VSS VDD _209_ _083_ _195_ _102_ dpath.a_lt_b$in0[7]
+ _208_ AOI221_X2
X_473_ VSS VDD _210_ _209_ _207_ NAND2_X2
X_474_ VSS VDD resp_msg[8] _116_ _210_ XOR2_X1
X_475_ VSS VDD _211_ resp_msg[8] _165_ NAND2_X2
X_476_ VSS VDD _212_ _014_ _156_ _211_ _206_ OAI211_X1
X_477_ VSS VDD _036_ _160_ _212_ dpath.a_lt_b$in0[8] MUX2_X1
X_478_ VSS VDD _213_ _070_ _054_ req_msg[25] OAI21_X1
X_479_ VSS VDD _214_ _116_ _115_ _210_ AND3_X1
X_480_ VSS VDD _215_ _116_ _210_ AND2_X1
X_481_ VSS VDD _216_ dpath.a_lt_b$in1[8] _128_ NOR2_X1
X_482_ VSS VDD _217_ _216_ _115_ _215_ NOR3_X1
X_483_ VSS VDD resp_msg[9] _216_ _115_ _217_ _214_ AOI211_X1
X_484_ VSS VDD _218_ _164_ resp_msg[9] NAND2_X1
X_485_ VSS VDD _219_ _015_ _156_ _218_ _213_ OAI211_X1
X_486_ VSS VDD _037_ _160_ _219_ dpath.a_lt_b$in0[9] MUX2_X1
X_487_ VSS VDD _220_ _070_ _054_ req_msg[26] OAI21_X1
X_488_ VSS VDD _221_ dpath.a_lt_b$in1[9] _130_ NOR2_X1
X_489_ VSS VDD _222_ _216_ _115_ _221_ AOI21_X1
X_490_ VSS VDD _223_ _222_ INV_X1
X_491_ VSS VDD _224_ _223_ _214_ NOR2_X1
X_492_ VSS VDD resp_msg[10] _112_ _224_ XNOR2_X1
X_493_ VSS VDD _225_ resp_msg[10] _164_ NAND2_X1
X_494_ VSS VDD _226_ _016_ _156_ _225_ _220_ OAI211_X1
X_495_ VSS VDD _023_ _160_ _226_ dpath.a_lt_b$in0[10] MUX2_X1
X_496_ VSS VDD _227_ _071_ _077_ req_msg[27] OAI21_X1
X_497_ VSS VDD _228_ _017_ _157_ _227_ OAI21_X2
X_498_ VSS VDD _229_ _223_ _214_ _112_ OAI21_X1
X_499_ VSS VDD _230_ dpath.a_lt_b$in1[10] _135_ NOR2_X1
X_500_ VSS VDD _231_ _230_ INV_X1
X_501_ VSS VDD _232_ _231_ _229_ AND2_X1
X_502_ VSS VDD resp_msg[11] _113_ _232_ XNOR2_X1
X_503_ VSS VDD _233_ _165_ resp_msg[11] AND2_X2
X_504_ VSS VDD _234_ _233_ _228_ _161_ OAI21_X1
X_505_ VSS VDD _024_ _161_ _133_ _234_ OAI21_X1
X_506_ VSS VDD _235_ _117_ _210_ AND2_X2
X_507_ VSS VDD _236_ _235_ INV_X2
X_508_ VSS VDD _237_ _114_ _223_ NAND2_X1
X_509_ VSS VDD _238_ _230_ _113_ _134_ AOI21_X1
X_510_ VSS VDD _239_ _238_ _237_ _236_ AND3_X4
X_511_ VSS VDD resp_msg[12] _123_ _239_ XNOR2_X1
X_512_ VSS VDD _240_ _164_ resp_msg[12] NAND2_X1
X_513_ VSS VDD _241_ _070_ _054_ req_msg[28] OAI21_X1
X_514_ VSS VDD _242_ _018_ _156_ _241_ _240_ OAI211_X1
X_515_ VSS VDD _025_ _160_ _242_ dpath.a_lt_b$in0[12] MUX2_X1
X_516_ VSS VDD _243_ _124_ _239_ NOR2_X2
X_517_ VSS VDD _244_ dpath.a_lt_b$in1[12] _145_ NOR2_X1
X_518_ VSS VDD _245_ _244_ _243_ NOR2_X2
X_519_ VSS VDD resp_msg[13] _121_ _245_ XNOR2_X1
X_520_ VSS VDD _246_ _164_ resp_msg[13] NAND2_X1
X_521_ VSS VDD _247_ _070_ _054_ req_msg[29] OAI21_X1
X_522_ VSS VDD _248_ _156_ _019_ _247_ _246_ OAI211_X1
X_523_ VSS VDD _026_ _160_ _248_ dpath.a_lt_b$in0[13] MUX2_X1
X_524_ VSS VDD _249_ _124_ _122_ _239_ OR3_X4
X_525_ VSS VDD _250_ _118_ INV_X1
X_526_ VSS VDD _251_ _019_ dpath.a_lt_b$in0[13] _244_ _121_
+ AOI22_X1
X_527_ VSS VDD _252_ _251_ _250_ _249_ AND3_X1
X_528_ VSS VDD _253_ _251_ _249_ _250_ AOI21_X4
X_529_ VSS VDD resp_msg[14] _253_ _252_ NOR2_X1
X_530_ VSS VDD _254_ _164_ resp_msg[14] NAND2_X1
X_531_ VSS VDD _255_ _070_ _054_ req_msg[30] OAI21_X1
X_532_ VSS VDD _256_ _156_ _020_ _255_ _254_ OAI211_X1
X_533_ VSS VDD _027_ _160_ _256_ dpath.a_lt_b$in0[14] MUX2_X1
X_534_ VSS VDD _257_ dpath.a_lt_b$in1[14] _139_ NOR2_X1
X_535_ VSS VDD _258_ _257_ _253_ NOR2_X2
X_536_ VSS VDD resp_msg[15] _119_ _258_ XNOR2_X1
X_537_ VSS VDD _259_ _165_ resp_msg[15] AND2_X2
X_538_ VSS VDD _260_ _071_ _077_ req_msg[31] OAI21_X1
X_539_ VSS VDD _261_ _021_ _157_ _260_ OAI21_X2
X_540_ VSS VDD _262_ _261_ _259_ _161_ OAI21_X1
X_541_ VSS VDD _028_ _161_ _079_ _262_ OAI21_X1
X_542_ VSS VDD _263_ _072_ req_msg[0] dpath.a_lt_b$in0[0]
+ MUX2_X1
X_543_ VSS VDD _264_ _005_ _155_ NAND2_X4
X_544_ VSS VDD _265_ _264_ BUF_X4
X_545_ VSS VDD _038_ _265_ _263_ dpath.a_lt_b$in1[0] MUX2_X1
X_546_ VSS VDD _266_ _072_ req_msg[1] dpath.a_lt_b$in0[1]
+ MUX2_X1
X_547_ VSS VDD _045_ _265_ _266_ dpath.a_lt_b$in1[1] MUX2_X1
X_548_ VSS VDD _267_ _072_ req_msg[2] dpath.a_lt_b$in0[2]
+ MUX2_X1
X_549_ VSS VDD _046_ _265_ _267_ dpath.a_lt_b$in1[2] MUX2_X1
X_550_ VSS VDD _268_ _072_ req_msg[3] dpath.a_lt_b$in0[3]
+ MUX2_X1
X_551_ VSS VDD _047_ _265_ _268_ dpath.a_lt_b$in1[3] MUX2_X1
X_552_ VSS VDD _269_ _072_ req_msg[4] dpath.a_lt_b$in0[4]
+ MUX2_X1
X_553_ VSS VDD _048_ _265_ _269_ dpath.a_lt_b$in1[4] MUX2_X1
X_554_ VSS VDD _270_ _072_ req_msg[5] dpath.a_lt_b$in0[5]
+ MUX2_X1
X_555_ VSS VDD _049_ _265_ _270_ dpath.a_lt_b$in1[5] MUX2_X1
X_556_ VSS VDD _271_ _072_ req_msg[6] dpath.a_lt_b$in0[6]
+ MUX2_X1
X_557_ VSS VDD _050_ _265_ _271_ dpath.a_lt_b$in1[6] MUX2_X1
X_558_ VSS VDD _272_ _072_ req_msg[7] dpath.a_lt_b$in0[7]
+ MUX2_X1
X_559_ VSS VDD _051_ _265_ _272_ dpath.a_lt_b$in1[7] MUX2_X1
X_560_ VSS VDD _273_ req_rdy req_msg[8] dpath.a_lt_b$in0[8]
+ MUX2_X1
X_561_ VSS VDD _052_ _265_ _273_ dpath.a_lt_b$in1[8] MUX2_X1
X_562_ VSS VDD _274_ req_rdy req_msg[9] dpath.a_lt_b$in0[9]
+ MUX2_X1
X_563_ VSS VDD _053_ _265_ _274_ dpath.a_lt_b$in1[9] MUX2_X1
X_564_ VSS VDD _275_ req_rdy req_msg[10] dpath.a_lt_b$in0[10]
+ MUX2_X1
X_565_ VSS VDD _039_ _264_ _275_ dpath.a_lt_b$in1[10] MUX2_X1
X_566_ VSS VDD _276_ req_rdy req_msg[11] dpath.a_lt_b$in0[11]
+ MUX2_X1
X_567_ VSS VDD _040_ _264_ _276_ dpath.a_lt_b$in1[11] MUX2_X1
X_568_ VSS VDD _277_ req_rdy req_msg[12] dpath.a_lt_b$in0[12]
+ MUX2_X1
X_569_ VSS VDD _041_ _264_ _277_ dpath.a_lt_b$in1[12] MUX2_X1
X_570_ VSS VDD _278_ req_rdy req_msg[13] dpath.a_lt_b$in0[13]
+ MUX2_X1
X_571_ VSS VDD _042_ _264_ _278_ dpath.a_lt_b$in1[13] MUX2_X1
X_572_ VSS VDD _279_ req_rdy req_msg[14] dpath.a_lt_b$in0[14]
+ MUX2_X1
X_573_ VSS VDD _043_ _264_ _279_ dpath.a_lt_b$in1[14] MUX2_X1
X_574_ VSS VDD _280_ req_rdy req_msg[15] dpath.a_lt_b$in0[15]
+ MUX2_X1
X_575_ VSS VDD _044_ _264_ _280_ dpath.a_lt_b$in1[15] MUX2_X1
X_576_ VSS VDD _005_ req_rdy clk _000_ DFF_X1
X_577_ VSS VDD _003_ ctrl.state.out[1] clk _001_ DFF_X1
X_578_ VSS VDD _004_ ctrl.state.out[2] clk _002_ DFF_X1
X_579_ VSS VDD _281_ dpath.a_lt_b$in0[0] clk _022_ DFF_X1
X_580_ VSS VDD _282_ dpath.a_lt_b$in0[1] clk _029_ DFF_X1
X_581_ VSS VDD _283_ dpath.a_lt_b$in0[2] clk _030_ DFF_X1
X_582_ VSS VDD _284_ dpath.a_lt_b$in0[3] clk _031_ DFF_X1
X_583_ VSS VDD _285_ dpath.a_lt_b$in0[4] clk _032_ DFF_X1
X_584_ VSS VDD _286_ dpath.a_lt_b$in0[5] clk _033_ DFF_X1
X_585_ VSS VDD _287_ dpath.a_lt_b$in0[6] clk _034_ DFF_X1
X_586_ VSS VDD _288_ dpath.a_lt_b$in0[7] clk _035_ DFF_X1
X_587_ VSS VDD _289_ dpath.a_lt_b$in0[8] clk _036_ DFF_X1
X_588_ VSS VDD _290_ dpath.a_lt_b$in0[9] clk _037_ DFF_X1
X_589_ VSS VDD _291_ dpath.a_lt_b$in0[10] clk _023_ DFF_X1
X_590_ VSS VDD _292_ dpath.a_lt_b$in0[11] clk _024_ DFF_X1
X_591_ VSS VDD _293_ dpath.a_lt_b$in0[12] clk _025_ DFF_X1
X_592_ VSS VDD _294_ dpath.a_lt_b$in0[13] clk _026_ DFF_X1
X_593_ VSS VDD _295_ dpath.a_lt_b$in0[14] clk _027_ DFF_X1
X_594_ VSS VDD _296_ dpath.a_lt_b$in0[15] clk _028_ DFF_X1
X_595_ VSS VDD _006_ dpath.a_lt_b$in1[0] clk _038_ DFF_X1
X_596_ VSS VDD _007_ dpath.a_lt_b$in1[1] clk _045_ DFF_X1
X_597_ VSS VDD _008_ dpath.a_lt_b$in1[2] clk _046_ DFF_X1
X_598_ VSS VDD _009_ dpath.a_lt_b$in1[3] clk _047_ DFF_X1
X_599_ VSS VDD _010_ dpath.a_lt_b$in1[4] clk _048_ DFF_X1
X_600_ VSS VDD _011_ dpath.a_lt_b$in1[5] clk _049_ DFF_X1
X_601_ VSS VDD _012_ dpath.a_lt_b$in1[6] clk _050_ DFF_X1
X_602_ VSS VDD _013_ dpath.a_lt_b$in1[7] clk _051_ DFF_X1
X_603_ VSS VDD _014_ dpath.a_lt_b$in1[8] clk _052_ DFF_X1
X_604_ VSS VDD _015_ dpath.a_lt_b$in1[9] clk _053_ DFF_X1
X_605_ VSS VDD _016_ dpath.a_lt_b$in1[10] clk _039_ DFF_X1
X_606_ VSS VDD _017_ dpath.a_lt_b$in1[11] clk _040_ DFF_X1
X_607_ VSS VDD _018_ dpath.a_lt_b$in1[12] clk _041_ DFF_X1
X_608_ VSS VDD _019_ dpath.a_lt_b$in1[13] clk _042_ DFF_X1
X_609_ VSS VDD _020_ dpath.a_lt_b$in1[14] clk _043_ DFF_X1
X_610_ VSS VDD _021_ dpath.a_lt_b$in1[15] clk _044_ DFF_X1
.ENDS gcd
