*SPEF "ieee 1481-1999"
*DESIGN "blk"
*DATE "11:11:11 Fri 11 11, 1111"
*VENDOR "OpenRCX"
*PROGRAM "Parallel Extraction"
*VERSION "1.0"
*DESIGN_FLOW "NAME_SCOPE LOCAL" "PIN_CAP NONE"
*DIVIDER /
*DELIMITER :
*BUS_DELIMITER []
*T_UNIT 1 NS
*C_UNIT 1 PF
*R_UNIT 1 OHM
*L_UNIT 1 HENRY

*NAME_MAP
*3 DU6_M1uuM2_W170W170_S00170S00170_2
*48 DU6_M1uuM3_W170W170_S01360S01360_3
*92 DU6_M1uuM5_W170W170_S00680S00680_3
*193 DU6_M2uuM6_W140W140_S00490S00490_2
*200 DU6_M2uuM6_W140W140_S00700S00700_3
*243 DU6_M3uuM5_W140W140_S00420S00420_2
*400 O6_M1oM0_W170W170_S00850S00850_1
*521 O6_M2oM1_W140W140_S00140S00140_cntxM1_38
*671 O6_M2oM1_W140W140_S00420S00420_cntxM1_40

*PORTS
DU6_M1uuM2_W170W170_S00170S00170_2 O
DU6_M1uuM2_W170W170_S00170S00170_2_BL I
DU6_M1uuM2_W170W170_S00170S00170_3 O
DU6_M1uuM3_W170W170_S01360S01360_2 O
DU6_M1uuM3_W170W170_S01360S01360_3 O
DU6_M1uuM3_W170W170_S01360S01360_3_BL I
DU6_M1uuM5_W170W170_S00680S00680_3 O
DU6_M1uuM5_W170W170_S00680S00680_3_BL I
DU6_M2uuM6_W140W140_S00420S00420_2 O
DU6_M2uuM6_W140W140_S00490S00490_2 O
DU6_M2uuM6_W140W140_S00490S00490_2_BL I
DU6_M2uuM6_W140W140_S00560S00560_2 O
DU6_M2uuM6_W140W140_S00700S00700_3 O
DU6_M2uuM6_W140W140_S00700S00700_3_BL I
DU6_M3uuM5_W140W140_S00350S00350_2 O
DU6_M3uuM5_W140W140_S00420S00420_2 O
DU6_M3uuM5_W140W140_S00420S00420_2_BL I
DU6_M3uuM5_W140W140_S00420S00420_3 O
DU6_M3uuM5_W140W140_S00490S00490_2 O
O6_M1oM0_W170W170_S00850S00850_1 O
O6_M1oM0_W170W170_S00850S00850_1_BL I
O6_M1oM0_W170W170_S00850S00850_2 O
O6_M2oM1_W140W140_S00140S00140_cntxM1_37 O
O6_M2oM1_W140W140_S00140S00140_cntxM1_38 O
O6_M2oM1_W140W140_S00140S00140_cntxM1_38_BL I
O6_M2oM1_W140W140_S00140S00140_cntxM1_39 O
O6_M2oM1_W140W140_S00420S00420_cntxM1_39 O
O6_M2oM1_W140W140_S00420S00420_cntxM1_40 O
O6_M2oM1_W140W140_S00420S00420_cntxM1_40_BL I
O6_M2oM1_W140W140_S00420S00420_cntxM1_41 O

*D_NET *3 0.00220343
*CONN
*P DU6_M1uuM2_W170W170_S00170S00170_2 O
*P DU6_M1uuM2_W170W170_S00170S00170_2_BL I
*CAP
1 DU6_M1uuM2_W170W170_S00170S00170_2 0.000724714
2 DU6_M1uuM2_W170W170_S00170S00170_2_BL 0.000724714
3 DU6_M1uuM2_W170W170_S00170S00170_2 DU6_M1uuM2_W170W170_S00170S00170_3 0.000754008
*RES
1 DU6_M1uuM2_W170W170_S00170S00170_2_BL DU6_M1uuM2_W170W170_S00170S00170_2 20.3274 
*END

*D_NET *48 0.00149063
*CONN
*P DU6_M1uuM3_W170W170_S01360S01360_3 O
*P DU6_M1uuM3_W170W170_S01360S01360_3_BL I
*CAP
1 DU6_M1uuM3_W170W170_S01360S01360_3 0.000659054
2 DU6_M1uuM3_W170W170_S01360S01360_3_BL 0.000659054
3 DU6_M1uuM3_W170W170_S01360S01360_2 DU6_M1uuM3_W170W170_S01360S01360_3 0.000172524
*RES
1 DU6_M1uuM3_W170W170_S01360S01360_3_BL DU6_M1uuM3_W170W170_S01360S01360_3 1147.31 
*END

*D_NET *92 0.00131811
*CONN
*P DU6_M1uuM5_W170W170_S00680S00680_3 O
*P DU6_M1uuM5_W170W170_S00680S00680_3_BL I
*CAP
1 DU6_M1uuM5_W170W170_S00680S00680_3 0.000659054
2 DU6_M1uuM5_W170W170_S00680S00680_3_BL 0.000659054
*RES
1 DU6_M1uuM5_W170W170_S00680S00680_3_BL DU6_M1uuM5_W170W170_S00680S00680_3 1147.31 
*END

*D_NET *193 0.00105188
*CONN
*P DU6_M2uuM6_W140W140_S00490S00490_2 O
*P DU6_M2uuM6_W140W140_S00490S00490_2_BL I
*CAP
1 DU6_M2uuM6_W140W140_S00490S00490_2 0.0005239
2 DU6_M2uuM6_W140W140_S00490S00490_2_BL 0.0005239
3 DU6_M2uuM6_W140W140_S00490S00490_2 DU6_M2uuM6_W140W140_S00560S00560_2 0
4 DU6_M2uuM6_W140W140_S00420S00420_2 DU6_M2uuM6_W140W140_S00490S00490_2 4.07895e-06
*RES
1 DU6_M2uuM6_W140W140_S00490S00490_2_BL DU6_M2uuM6_W140W140_S00490S00490_2 0.227618 
*END

*D_NET *200 0.00119152
*CONN
*P DU6_M2uuM6_W140W140_S00700S00700_3 O
*P DU6_M2uuM6_W140W140_S00700S00700_3_BL I
*CAP
1 DU6_M2uuM6_W140W140_S00700S00700_3 0.000595761
2 DU6_M2uuM6_W140W140_S00700S00700_3_BL 0.000595761
*RES
1 DU6_M2uuM6_W140W140_S00700S00700_3_BL DU6_M2uuM6_W140W140_S00700S00700_3 16.7104 
*END

*D_NET *243 0.00147562
*CONN
*P DU6_M3uuM5_W140W140_S00420S00420_2 O
*P DU6_M3uuM5_W140W140_S00420S00420_2_BL I
*CAP
1 DU6_M3uuM5_W140W140_S00420S00420_2 0.00057763
2 DU6_M3uuM5_W140W140_S00420S00420_2_BL 0.00057763
3 DU6_M3uuM5_W140W140_S00420S00420_2 DU6_M3uuM5_W140W140_S00420S00420_3 0.000320361
4 DU6_M3uuM5_W140W140_S00420S00420_2 DU6_M3uuM5_W140W140_S00490S00490_2 0
5 DU6_M3uuM5_W140W140_S00350S00350_2 DU6_M3uuM5_W140W140_S00420S00420_2 0
*RES
1 DU6_M3uuM5_W140W140_S00420S00420_2_BL DU6_M3uuM5_W140W140_S00420S00420_2 2.30289 
*END

*D_NET *400 0.0018392
*CONN
*P O6_M1oM0_W170W170_S00850S00850_1 O
*P O6_M1oM0_W170W170_S00850S00850_1_BL I
*CAP
1 O6_M1oM0_W170W170_S00850S00850_1 0.000436284
2 O6_M1oM0_W170W170_S00850S00850_1_BL 0.000436284
3 O6_M1oM0_W170W170_S00850S00850_1 O6_M1oM0_W170W170_S00850S00850_2 0.000966629
*RES
1 O6_M1oM0_W170W170_S00850S00850_1_BL O6_M1oM0_W170W170_S00850S00850_1 1147.31 
*END

*D_NET *521 0.000515172
*CONN
*P O6_M2oM1_W140W140_S00140S00140_cntxM1_38 O
*P O6_M2oM1_W140W140_S00140S00140_cntxM1_38_BL I
*CAP
1 O6_M2oM1_W140W140_S00140S00140_cntxM1_38 6.87443e-05
2 O6_M2oM1_W140W140_S00140S00140_cntxM1_38_BL 6.87443e-05
3 O6_M2oM1_W140W140_S00140S00140_cntxM1_38 O6_M2oM1_W140W140_S00140S00140_cntxM1_39 0.000188842
4 O6_M2oM1_W140W140_S00140S00140_cntxM1_37 O6_M2oM1_W140W140_S00140S00140_cntxM1_38 0.000188842
*RES
1 O6_M2oM1_W140W140_S00140S00140_cntxM1_38_BL O6_M2oM1_W140W140_S00140S00140_cntxM1_38 175.88 
*END

*D_NET *671 0.000622218
*CONN
*P O6_M2oM1_W140W140_S00420S00420_cntxM1_40 O
*P O6_M2oM1_W140W140_S00420S00420_cntxM1_40_BL I
*CAP
1 O6_M2oM1_W140W140_S00420S00420_cntxM1_40 7.4012e-05
2 O6_M2oM1_W140W140_S00420S00420_cntxM1_40_BL 7.4012e-05
3 O6_M2oM1_W140W140_S00420S00420_cntxM1_40 O6_M2oM1_W140W140_S00420S00420_cntxM1_41 0.000237097
4 O6_M2oM1_W140W140_S00420S00420_cntxM1_39 O6_M2oM1_W140W140_S00420S00420_cntxM1_40 0.000237097
*RES
1 O6_M2oM1_W140W140_S00420S00420_cntxM1_40_BL O6_M2oM1_W140W140_S00420S00420_cntxM1_40 214.055 
*END
