*SPEF "ieee 1481-1999"
*DESIGN "gcd"
*DATE "11:11:11 Fri 11 11, 1111"
*VENDOR "The OpenROAD Project"
*PROGRAM "OpenROAD"
*VERSION "1.0"
*DESIGN_FLOW "NAME_SCOPE LOCAL" "PIN_CAP NONE"
*DIVIDER /
*DELIMITER :
*BUS_DELIMITER []
*T_UNIT 1 NS
*C_UNIT 1 PF
*R_UNIT 1 OHM
*L_UNIT 1 HENRY

*NAME_MAP
*1 clk
*2 req_msg[0]
*3 req_msg[10]
*4 req_msg[11]
*5 req_msg[12]
*6 req_msg[13]
*7 req_msg[14]
*8 req_msg[15]
*9 req_msg[16]
*10 req_msg[17]
*11 req_msg[18]
*12 req_msg[19]
*13 req_msg[1]
*14 req_msg[20]
*15 req_msg[21]
*16 req_msg[22]
*17 req_msg[23]
*18 req_msg[24]
*19 req_msg[25]
*20 req_msg[26]
*21 req_msg[27]
*22 req_msg[28]
*23 req_msg[29]
*24 req_msg[2]
*25 req_msg[30]
*26 req_msg[31]
*27 req_msg[3]
*28 req_msg[4]
*29 req_msg[5]
*30 req_msg[6]
*31 req_msg[7]
*32 req_msg[8]
*33 req_msg[9]
*34 net3
*35 req_val
*36 reset
*37 resp_msg[0]
*38 resp_msg[10]
*39 resp_msg[11]
*40 resp_msg[12]
*41 resp_msg[13]
*42 resp_msg[14]
*43 resp_msg[15]
*44 resp_msg[1]
*45 resp_msg[2]
*46 resp_msg[3]
*47 resp_msg[4]
*48 resp_msg[5]
*49 resp_msg[6]
*50 resp_msg[7]
*51 resp_msg[8]
*52 resp_msg[9]
*53 resp_rdy
*54 resp_val
*57 _000_
*58 _001_
*59 _002_
*60 _003_
*61 _004_
*62 _005_
*63 _006_
*64 _007_
*65 _008_
*66 _009_
*67 _010_
*68 _011_
*69 _012_
*70 _013_
*71 _014_
*72 _015_
*73 _016_
*74 _017_
*75 _018_
*76 _019_
*77 _020_
*78 _021_
*79 _022_
*80 _023_
*81 _024_
*82 _025_
*83 _026_
*84 _027_
*85 _028_
*86 _029_
*87 _030_
*88 _031_
*89 _032_
*90 _033_
*91 _034_
*92 _035_
*93 _036_
*94 _037_
*95 _038_
*96 _039_
*97 _040_
*98 _041_
*99 _042_
*100 _043_
*101 _044_
*102 clknet_2_3__leaf_clk
*103 clknet_2_2__leaf_clk
*104 _047_
*105 _048_
*106 _049_
*107 _050_
*108 _051_
*109 _052_
*110 _053_
*111 _054_
*112 _055_
*113 _056_
*114 _057_
*115 _058_
*116 _059_
*117 _060_
*118 _061_
*119 _062_
*120 _063_
*121 _064_
*122 _065_
*123 _066_
*124 _067_
*125 _068_
*126 _069_
*127 _070_
*128 _071_
*129 _072_
*130 _073_
*131 _074_
*132 _075_
*133 _076_
*134 _077_
*135 _078_
*136 _079_
*137 _080_
*138 _081_
*139 _082_
*140 _083_
*141 _084_
*142 _085_
*143 _086_
*144 _087_
*145 _088_
*146 _089_
*147 _090_
*148 _091_
*149 _092_
*150 _093_
*151 _094_
*152 _095_
*153 _096_
*154 _097_
*155 _098_
*156 _099_
*157 _100_
*158 _101_
*159 _102_
*160 _103_
*161 _104_
*162 _105_
*163 _106_
*164 _107_
*165 _108_
*166 _109_
*167 _110_
*168 _111_
*169 _112_
*170 _113_
*171 _114_
*172 _115_
*173 _116_
*174 _117_
*175 _118_
*176 _119_
*177 _120_
*178 _121_
*179 _122_
*180 _123_
*181 _124_
*182 _125_
*183 _126_
*184 _127_
*185 _128_
*186 _129_
*187 _130_
*188 _131_
*189 _132_
*190 _133_
*191 _134_
*192 _135_
*193 _136_
*194 _137_
*195 _138_
*196 _139_
*197 _140_
*198 _141_
*199 _142_
*200 _143_
*201 _144_
*202 _145_
*203 _146_
*204 _147_
*205 _148_
*206 _149_
*207 _150_
*208 _151_
*209 _152_
*210 _153_
*211 _154_
*212 _155_
*213 _156_
*214 _157_
*215 _158_
*216 _159_
*217 _160_
*218 _161_
*219 _162_
*220 _163_
*221 _164_
*222 _165_
*223 _166_
*224 _167_
*225 _168_
*226 _169_
*227 _170_
*228 _171_
*229 _172_
*230 _173_
*231 _174_
*232 _175_
*233 _176_
*234 _177_
*235 _178_
*236 _179_
*237 _180_
*238 _181_
*239 _182_
*240 _183_
*241 _184_
*242 _185_
*243 _186_
*244 _187_
*245 _188_
*246 _189_
*247 _190_
*248 _191_
*249 _192_
*250 _193_
*251 _194_
*252 _195_
*253 _196_
*254 _197_
*255 clknet_2_1__leaf_clk
*256 _199_
*257 _200_
*258 clknet_2_0__leaf_clk
*259 clknet_0_clk
*260 _203_
*261 _204_
*262 _205_
*263 _206_
*264 net4
*265 _208_
*266 _209_
*267 _210_
*268 _211_
*269 _212_
*270 _213_
*271 _214_
*272 _215_
*273 _217_
*274 _218_
*275 _219_
*276 _220_
*277 _221_
*278 _222_
*279 _223_
*280 _224_
*281 _225_
*282 _226_
*283 _227_
*284 _228_
*285 _229_
*286 _230_
*287 _231_
*288 _232_
*289 _233_
*290 _234_
*291 _235_
*292 _236_
*293 _237_
*294 _238_
*295 _239_
*296 _240_
*297 _241_
*298 _242_
*299 _243_
*300 _244_
*301 _245_
*302 _246_
*303 _247_
*304 _248_
*305 _249_
*306 _250_
*307 _251_
*308 _252_
*309 _253_
*310 _254_
*311 _255_
*312 _256_
*313 _257_
*314 _258_
*315 _259_
*316 _260_
*317 _261_
*318 _262_
*319 _263_
*320 _264_
*321 _265_
*322 _266_
*323 _267_
*324 _268_
*325 net2
*326 _270_
*327 _271_
*328 net1
*329 _274_
*330 _276_
*331 _277_
*332 _278_
*333 _279_
*334 _280_
*335 _281_
*336 _282_
*337 _283_
*338 _284_
*339 _285_
*340 _286_
*341 _287_
*342 _288_
*343 _289_
*344 _290_
*345 _291_
*346 _292_
*347 _293_
*348 _294_
*349 _295_
*350 _296_
*351 _297_
*352 _298_
*353 _299_
*354 _300_
*355 _301_
*356 _302_
*357 _303_
*358 _304_
*359 _305_
*360 _306_
*361 _307_
*362 _308_
*363 _309_
*364 _310_
*365 _311_
*366 _312_
*367 _313_
*368 _314_
*369 _315_
*370 _316_
*371 _317_
*372 _318_
*373 _319_
*374 _320_
*375 _321_
*376 _322_
*377 _323_
*378 _324_
*379 ctrl\.state\.out\[1\]
*380 ctrl\.state\.out\[2\]
*381 dpath\.a_lt_b\$in0\[0\]
*382 dpath\.a_lt_b\$in0\[10\]
*383 dpath\.a_lt_b\$in0\[11\]
*384 dpath\.a_lt_b\$in0\[12\]
*385 dpath\.a_lt_b\$in0\[13\]
*386 dpath\.a_lt_b\$in0\[14\]
*387 dpath\.a_lt_b\$in0\[15\]
*388 dpath\.a_lt_b\$in0\[1\]
*389 dpath\.a_lt_b\$in0\[2\]
*390 dpath\.a_lt_b\$in0\[3\]
*391 dpath\.a_lt_b\$in0\[4\]
*392 dpath\.a_lt_b\$in0\[5\]
*393 dpath\.a_lt_b\$in0\[6\]
*394 dpath\.a_lt_b\$in0\[7\]
*395 dpath\.a_lt_b\$in0\[8\]
*396 dpath\.a_lt_b\$in0\[9\]
*397 dpath\.a_lt_b\$in1\[0\]
*398 dpath\.a_lt_b\$in1\[10\]
*399 dpath\.a_lt_b\$in1\[11\]
*400 dpath\.a_lt_b\$in1\[12\]
*401 dpath\.a_lt_b\$in1\[13\]
*402 dpath\.a_lt_b\$in1\[14\]
*403 dpath\.a_lt_b\$in1\[15\]
*404 dpath\.a_lt_b\$in1\[1\]
*405 dpath\.a_lt_b\$in1\[2\]
*406 dpath\.a_lt_b\$in1\[3\]
*407 dpath\.a_lt_b\$in1\[4\]
*408 dpath\.a_lt_b\$in1\[5\]
*409 dpath\.a_lt_b\$in1\[6\]
*410 dpath\.a_lt_b\$in1\[7\]
*411 dpath\.a_lt_b\$in1\[8\]
*412 dpath\.a_lt_b\$in1\[9\]
*413 req_rdy
*414 _325_
*415 _326_
*416 _327_
*417 _328_
*418 _329_
*419 _330_
*420 _331_
*421 _332_
*422 _333_
*423 _334_
*424 _335_
*425 PHY_10
*426 PHY_9
*427 _338_
*428 _339_
*429 _340_
*430 _341_
*431 _342_
*432 _343_
*433 _344_
*434 _345_
*435 _346_
*436 _347_
*437 _348_
*438 _349_
*439 _350_
*440 _351_
*441 _352_
*442 _353_
*443 _354_
*444 _355_
*445 _356_
*446 _357_
*447 _358_
*448 _359_
*449 _360_
*450 _361_
*451 _362_
*452 _363_
*453 _364_
*454 _365_
*455 _366_
*456 _367_
*457 _368_
*458 _369_
*459 _370_
*460 _371_
*461 _372_
*462 _373_
*463 _374_
*464 _375_
*465 _376_
*466 _377_
*467 _378_
*468 _379_
*469 _380_
*470 _381_
*471 _382_
*472 _383_
*473 _384_
*474 _385_
*475 _386_
*476 _387_
*477 _388_
*478 _389_
*479 _390_
*480 _391_
*481 _392_
*482 _393_
*483 _394_
*484 _395_
*485 _396_
*486 _397_
*487 _398_
*488 _399_
*489 _400_
*490 _401_
*491 _402_
*492 _403_
*493 _404_
*494 _405_
*495 _406_
*496 _407_
*497 _408_
*498 _409_
*499 _410_
*500 _411_
*501 _412_
*502 _413_
*503 _414_
*504 _415_
*505 _416_
*506 _417_
*507 _418_
*508 _419_
*509 _420_
*510 _421_
*511 _422_
*512 _423_
*513 _424_
*514 _425_
*515 _426_
*516 _427_
*517 _428_
*518 _429_
*519 _430_
*520 _431_
*521 _432_
*522 _433_
*523 _434_
*524 _435_
*525 _436_
*526 _437_
*527 _438_
*528 _439_
*529 _440_
*530 _441_
*531 _442_
*532 _443_
*533 _444_
*534 _445_
*535 _446_
*536 _447_
*537 _448_
*538 _449_
*539 _450_
*540 _451_
*541 _452_
*542 _453_
*543 _454_
*544 _455_
*545 _456_
*546 _457_
*547 _458_
*548 _459_
*549 _460_
*550 _461_
*551 _462_
*552 _463_
*553 _464_
*554 _465_
*555 _466_
*556 _467_
*557 _468_
*558 _469_
*559 _470_
*560 _471_
*561 _472_
*562 _473_
*563 _474_
*564 _475_
*565 _476_
*566 _477_
*567 _478_
*568 _479_
*569 _480_
*570 _481_
*571 _482_
*572 _483_
*573 _484_
*574 _485_
*575 _486_
*576 _487_
*577 _488_
*578 _489_
*579 _490_
*580 _491_
*581 _492_
*582 _493_
*583 _494_
*584 _495_
*585 _496_
*586 _497_
*587 _498_
*588 _499_
*589 _500_
*590 _501_
*591 _502_
*592 _503_
*593 _504_
*594 _505_
*595 _506_
*596 _507_
*597 PHY_8
*598 _509_
*599 _510_
*600 PHY_7
*601 PHY_6
*602 _513_
*603 _514_
*604 _515_
*605 _516_
*606 _517_
*607 PHY_5
*608 _519_
*609 _520_
*610 _521_
*611 _522_
*612 _523_
*613 _524_
*614 _525_
*615 _526_
*616 _527_
*617 _528_
*618 PHY_4
*619 _530_
*620 _531_
*621 _532_
*622 _533_
*623 _534_
*624 _535_
*625 _536_
*626 _537_
*627 _538_
*628 _539_
*629 _540_
*630 _541_
*631 _542_
*632 _543_
*633 _544_
*634 _545_
*635 _546_
*636 _547_
*637 _548_
*638 _549_
*639 _550_
*640 _551_
*641 _552_
*642 _553_
*643 _554_
*644 _555_
*645 _556_
*646 _557_
*647 _558_
*648 _559_
*649 _560_
*650 _561_
*651 _562_
*652 _563_
*653 _564_
*654 _565_
*655 _566_
*656 _567_
*657 _568_
*658 _569_
*659 _570_
*660 _571_
*661 _572_
*662 _573_
*663 _574_
*664 _575_
*665 _576_
*666 _577_
*667 _578_
*668 _579_
*669 _580_
*670 _581_
*671 _582_
*672 _583_
*673 _584_
*674 _585_
*675 _586_
*676 _587_
*677 _588_
*678 _589_
*679 _590_
*680 _591_
*681 _592_
*682 _593_
*683 _594_
*684 PHY_3
*685 _596_
*686 _597_
*687 PHY_2
*688 PHY_1
*689 _600_
*690 PHY_0
*691 _602_
*692 _603_
*693 _604_
*694 _605_
*695 _606_
*696 _607_
*697 _608_
*698 _609_
*699 _610_
*700 _611_
*701 _612_
*702 _613_
*703 _614_
*704 _615_
*705 _616_
*706 _617_
*707 _618_
*708 _619_
*709 _620_
*710 _621_
*711 _622_
*712 _623_
*713 _624_
*714 _625_
*715 _626_
*716 _627_
*717 _628_
*718 _629_
*719 _630_
*720 _631_
*721 _632_
*722 _633_
*723 _634_
*724 _635_
*725 _636_
*726 _637_
*727 _638_
*728 _639_
*729 _640_
*730 _641_
*731 _642_
*732 _643_
*733 _644_
*734 _645_
*735 _646_
*736 _647_
*737 _648_
*738 _649_
*739 _650_
*740 _651_
*741 _652_
*742 _653_
*743 _654_
*744 _655_
*745 _656_
*746 _657_
*747 _658_
*748 _659_
*749 _660_
*750 _661_
*751 _662_
*752 _663_
*753 _664_
*754 _665_
*755 _666_
*756 _667_
*757 _668_
*758 _669_
*759 _670_
*760 _671_
*761 _672_
*762 _673_
*763 _674_
*764 _675_
*765 _676_
*766 _677_
*767 _678_
*768 _679_
*769 _680_
*770 _681_
*771 _682_
*772 _683_
*773 _684_
*774 _685_
*775 _686_
*776 _687_
*777 _688_
*778 _689_
*779 _690_
*780 _691_
*781 _692_
*782 _693_
*783 _694_
*784 _695_
*785 _696_
*786 _697_
*787 _698_
*788 _699_
*789 _700_
*790 _701_
*791 PHY_11
*792 PHY_12
*793 PHY_13
*794 PHY_14
*795 PHY_15
*796 PHY_16
*797 PHY_17
*798 PHY_18
*799 PHY_19
*800 PHY_20
*801 PHY_21
*802 PHY_22
*803 PHY_23
*804 PHY_24
*805 PHY_25
*806 PHY_26
*807 PHY_27
*808 PHY_28
*809 PHY_29
*810 PHY_30
*811 PHY_31
*812 PHY_32
*813 PHY_33
*814 PHY_34
*815 PHY_35
*816 PHY_36
*817 PHY_37
*818 PHY_38
*819 PHY_39
*820 PHY_40
*821 PHY_41
*822 PHY_42
*823 PHY_43
*824 PHY_44
*825 PHY_45
*826 PHY_46
*827 PHY_47
*828 PHY_48
*829 PHY_49
*830 PHY_50
*831 PHY_51
*832 PHY_52
*833 PHY_53
*834 PHY_54
*835 PHY_55
*836 PHY_56
*837 PHY_57
*838 PHY_58
*839 PHY_59
*840 PHY_60
*841 PHY_61
*842 PHY_62
*843 PHY_63
*844 PHY_64
*845 PHY_65
*846 PHY_66
*847 PHY_67
*848 PHY_68
*849 PHY_69
*850 PHY_70
*851 PHY_71
*852 PHY_72
*853 PHY_73
*854 PHY_74
*855 PHY_75
*856 PHY_76
*857 PHY_77
*858 PHY_78
*859 PHY_79
*860 PHY_80
*861 PHY_81
*862 PHY_82
*863 PHY_83
*864 PHY_84
*865 PHY_85
*866 PHY_86
*867 PHY_87
*868 PHY_88
*869 PHY_89
*870 PHY_90
*871 PHY_91
*872 PHY_92
*873 PHY_93
*874 PHY_94
*875 PHY_95
*876 PHY_96
*877 PHY_97
*878 PHY_98
*879 PHY_99
*880 PHY_100
*881 PHY_101
*882 PHY_102
*883 PHY_103
*884 PHY_104
*885 PHY_105
*886 PHY_106
*887 PHY_107
*888 PHY_108
*889 PHY_109
*890 PHY_110
*891 PHY_111
*892 PHY_112
*893 PHY_113
*894 PHY_114
*895 PHY_115
*896 PHY_116
*897 PHY_117
*898 PHY_118
*899 PHY_119
*900 PHY_120
*901 PHY_121
*902 PHY_122
*903 PHY_123
*904 PHY_124
*905 PHY_125
*906 PHY_126
*907 PHY_127
*908 PHY_128
*909 PHY_129
*910 PHY_130
*911 PHY_131
*912 PHY_132
*913 PHY_133
*914 PHY_134
*915 PHY_135
*916 PHY_136
*917 PHY_137
*918 PHY_138
*919 PHY_139
*920 PHY_140
*921 PHY_141
*922 PHY_142
*923 PHY_143
*924 PHY_144
*925 PHY_145
*926 PHY_146
*927 PHY_147
*928 PHY_148
*929 PHY_149
*930 PHY_150
*931 PHY_151
*932 PHY_152
*933 PHY_153
*934 PHY_154
*935 PHY_155
*936 PHY_156
*937 PHY_157
*938 PHY_158
*939 PHY_159
*940 PHY_160
*941 PHY_161
*942 PHY_162
*943 PHY_163
*944 PHY_164
*945 PHY_165
*946 PHY_166
*947 PHY_167
*948 PHY_168
*949 PHY_169
*950 PHY_170
*951 PHY_171
*952 PHY_172
*953 PHY_173
*954 PHY_174
*955 PHY_175
*956 PHY_176
*957 PHY_177
*958 PHY_178
*959 PHY_179
*960 PHY_180
*961 PHY_181
*962 PHY_182
*963 PHY_183
*964 PHY_184
*965 PHY_185
*966 PHY_186
*967 PHY_187
*968 PHY_188
*969 PHY_189
*970 PHY_190
*971 PHY_191
*972 PHY_192
*973 PHY_193
*974 PHY_194
*975 PHY_195
*976 PHY_196
*977 PHY_197
*978 PHY_198
*979 PHY_199
*980 PHY_200
*981 PHY_201
*982 PHY_202
*983 PHY_203
*984 PHY_204
*985 PHY_205
*986 PHY_206
*987 PHY_207
*988 PHY_208
*989 PHY_209
*990 PHY_210
*991 PHY_211
*992 PHY_212
*993 PHY_213
*994 PHY_214
*995 PHY_215
*996 PHY_216
*997 PHY_217
*998 PHY_218
*999 PHY_219
*1000 PHY_220
*1001 PHY_221
*1002 PHY_222
*1003 PHY_223
*1004 PHY_224
*1005 PHY_225
*1006 PHY_226
*1007 PHY_227
*1008 PHY_228
*1009 PHY_229
*1010 PHY_230
*1011 PHY_231
*1012 PHY_232
*1013 PHY_233
*1014 PHY_234
*1015 PHY_235
*1016 PHY_236
*1017 PHY_237
*1018 PHY_238
*1019 PHY_239
*1020 PHY_240
*1021 PHY_241
*1022 PHY_242
*1023 PHY_243
*1024 PHY_244
*1025 PHY_245
*1026 PHY_246
*1027 PHY_247
*1028 PHY_248
*1029 PHY_249
*1030 PHY_250
*1031 PHY_251
*1032 PHY_252
*1033 PHY_253
*1034 PHY_254
*1035 PHY_255
*1036 PHY_256
*1037 PHY_257
*1038 PHY_258
*1039 PHY_259
*1040 PHY_260
*1041 PHY_261
*1042 PHY_262
*1043 PHY_263
*1044 PHY_264
*1045 PHY_265
*1046 PHY_266
*1047 PHY_267
*1048 PHY_268
*1049 PHY_269
*1050 PHY_270
*1051 PHY_271
*1052 PHY_272
*1053 PHY_273
*1054 PHY_274
*1055 PHY_275
*1056 PHY_276
*1057 PHY_277
*1058 PHY_278
*1059 PHY_279
*1060 PHY_280
*1061 PHY_281
*1062 PHY_282
*1063 PHY_283
*1064 PHY_284
*1065 PHY_285
*1066 PHY_286
*1067 PHY_287
*1068 PHY_288
*1069 PHY_289
*1070 PHY_290
*1071 PHY_291
*1072 PHY_292
*1073 PHY_293
*1074 PHY_294
*1075 PHY_295
*1076 PHY_296
*1077 PHY_297
*1078 PHY_298
*1079 PHY_299
*1080 PHY_300
*1081 PHY_301
*1082 PHY_302
*1083 PHY_303
*1084 PHY_304
*1085 PHY_305
*1086 PHY_306
*1087 PHY_307
*1088 PHY_308
*1089 PHY_309
*1090 PHY_310
*1091 PHY_311
*1092 PHY_312
*1093 PHY_313
*1094 PHY_314
*1095 PHY_315
*1096 PHY_316
*1097 PHY_317
*1098 PHY_318
*1099 PHY_319
*1100 PHY_320
*1101 PHY_321
*1102 PHY_322
*1103 PHY_323
*1104 PHY_324
*1105 PHY_325
*1106 PHY_326
*1107 PHY_327
*1108 PHY_328
*1109 PHY_329
*1110 PHY_330
*1111 PHY_331
*1112 PHY_332
*1113 PHY_333
*1114 PHY_334
*1115 PHY_335
*1116 PHY_336
*1117 PHY_337
*1118 PHY_338
*1119 PHY_339
*1120 PHY_340
*1121 PHY_341
*1122 PHY_342
*1123 PHY_343
*1124 PHY_344
*1125 PHY_345
*1126 PHY_346
*1127 PHY_347
*1128 PHY_348
*1129 PHY_349
*1130 PHY_350
*1131 PHY_351
*1132 PHY_352
*1133 PHY_353
*1134 PHY_354
*1135 PHY_355
*1136 PHY_356
*1137 PHY_357
*1138 PHY_358
*1139 PHY_359
*1140 PHY_360
*1141 PHY_361
*1142 PHY_362
*1143 PHY_363
*1144 PHY_364
*1145 PHY_365
*1146 PHY_366
*1147 PHY_367
*1148 PHY_368
*1149 PHY_369
*1150 PHY_370
*1151 PHY_371
*1152 PHY_372
*1153 PHY_373
*1154 PHY_374
*1155 PHY_375
*1156 PHY_376
*1157 PHY_377
*1158 PHY_378
*1159 PHY_379
*1160 PHY_380
*1161 PHY_381
*1162 PHY_382
*1163 PHY_383
*1164 PHY_384
*1165 PHY_385
*1166 PHY_386
*1167 PHY_387
*1168 PHY_388
*1169 PHY_389
*1170 PHY_390
*1171 PHY_391
*1172 PHY_392
*1173 PHY_393
*1174 PHY_394
*1175 PHY_395
*1176 PHY_396
*1177 PHY_397
*1178 PHY_398
*1179 PHY_399
*1180 PHY_400
*1181 PHY_401
*1182 PHY_402
*1183 PHY_403
*1184 PHY_404
*1185 PHY_405
*1186 PHY_406
*1187 PHY_407
*1188 PHY_408
*1189 PHY_409
*1190 PHY_410
*1191 PHY_411
*1192 PHY_412
*1193 PHY_413
*1194 PHY_414
*1195 PHY_415
*1196 PHY_416
*1197 PHY_417
*1198 PHY_418
*1199 PHY_419
*1200 PHY_420
*1201 PHY_421
*1202 PHY_422
*1203 PHY_423
*1204 PHY_424
*1205 PHY_425
*1206 PHY_426
*1207 PHY_427
*1208 PHY_428
*1209 PHY_429
*1210 PHY_430
*1211 PHY_431
*1212 PHY_432
*1213 PHY_433
*1214 PHY_434
*1215 PHY_435
*1216 PHY_436
*1217 PHY_437
*1218 PHY_438
*1219 PHY_439
*1220 PHY_440
*1221 PHY_441
*1222 PHY_442
*1223 PHY_443
*1224 PHY_444
*1225 PHY_445
*1226 PHY_446
*1227 PHY_447
*1228 PHY_448
*1229 PHY_449
*1230 PHY_450
*1231 PHY_451
*1232 PHY_452
*1233 PHY_453
*1234 PHY_454
*1235 PHY_455
*1236 PHY_456
*1237 PHY_457
*1238 PHY_458
*1239 PHY_459
*1240 PHY_460
*1241 PHY_461
*1242 PHY_462
*1243 PHY_463
*1244 PHY_464
*1245 PHY_465
*1246 PHY_466
*1247 PHY_467
*1248 PHY_468
*1249 PHY_469
*1250 PHY_470
*1251 PHY_471
*1252 PHY_472
*1253 PHY_473
*1254 PHY_474
*1255 PHY_475
*1256 PHY_476
*1257 PHY_477
*1258 PHY_478
*1259 PHY_479
*1260 PHY_480
*1261 PHY_481
*1262 PHY_482
*1263 PHY_483
*1264 PHY_484
*1265 PHY_485
*1266 PHY_486
*1267 PHY_487
*1268 PHY_488
*1269 PHY_489
*1270 PHY_490
*1271 PHY_491
*1272 PHY_492
*1273 PHY_493
*1274 PHY_494
*1275 PHY_495
*1276 PHY_496
*1277 PHY_497
*1278 PHY_498
*1279 PHY_499
*1280 PHY_500
*1281 PHY_501
*1282 PHY_502
*1283 PHY_503
*1284 PHY_504
*1285 PHY_505
*1286 PHY_506
*1287 PHY_507
*1288 PHY_508
*1289 PHY_509
*1290 PHY_510
*1291 PHY_511
*1292 PHY_512
*1293 PHY_513
*1294 PHY_514
*1295 PHY_515
*1296 PHY_516
*1297 PHY_517
*1298 PHY_518
*1299 PHY_519
*1300 PHY_520
*1301 PHY_521
*1302 PHY_522
*1303 PHY_523
*1304 PHY_524
*1305 PHY_525
*1306 PHY_526
*1307 PHY_527
*1308 PHY_528
*1309 PHY_529
*1310 PHY_530
*1311 PHY_531
*1312 PHY_532
*1313 PHY_533
*1314 PHY_534
*1315 PHY_535
*1316 PHY_536
*1317 PHY_537
*1318 PHY_538
*1319 PHY_539
*1320 PHY_540
*1321 PHY_541
*1322 PHY_542
*1323 PHY_543
*1324 PHY_544
*1325 PHY_545
*1326 PHY_546
*1327 PHY_547
*1328 PHY_548
*1329 PHY_549
*1330 PHY_550
*1331 PHY_551
*1332 PHY_552
*1333 PHY_553
*1334 PHY_554
*1335 PHY_555
*1336 PHY_556
*1337 PHY_557
*1338 PHY_558
*1339 PHY_559
*1340 PHY_560
*1341 PHY_561
*1342 PHY_562
*1343 PHY_563
*1344 PHY_564
*1345 PHY_565
*1346 PHY_566
*1347 PHY_567
*1348 PHY_568
*1349 PHY_569
*1350 PHY_570
*1351 PHY_571
*1352 PHY_572
*1353 PHY_573
*1354 PHY_574
*1355 PHY_575
*1356 PHY_576
*1357 PHY_577
*1358 PHY_578
*1359 PHY_579
*1360 PHY_580
*1361 PHY_581
*1362 PHY_582
*1363 PHY_583
*1364 PHY_584
*1365 PHY_585
*1366 PHY_586
*1367 PHY_587
*1368 PHY_588
*1369 PHY_589
*1370 PHY_590
*1371 PHY_591
*1372 PHY_592
*1373 PHY_593
*1374 PHY_594
*1375 PHY_595
*1376 PHY_596
*1377 PHY_597
*1378 PHY_598
*1379 PHY_599
*1380 PHY_600
*1381 PHY_601
*1382 PHY_602
*1383 PHY_603
*1384 PHY_604
*1385 PHY_605
*1386 PHY_606
*1387 PHY_607
*1388 PHY_608
*1389 PHY_609
*1390 PHY_610
*1391 PHY_611
*1392 PHY_612
*1393 PHY_613
*1394 PHY_614
*1395 PHY_615
*1396 PHY_616
*1397 PHY_617
*1398 PHY_618
*1399 PHY_619
*1400 PHY_620
*1401 PHY_621
*1402 PHY_622
*1403 PHY_623
*1404 PHY_624
*1405 PHY_625
*1406 PHY_626
*1407 PHY_627
*1408 PHY_628
*1409 PHY_629
*1410 PHY_630
*1411 PHY_631
*1412 PHY_632
*1413 PHY_633
*1414 PHY_634
*1415 PHY_635
*1416 PHY_636
*1417 PHY_637
*1418 PHY_638
*1419 PHY_639
*1420 PHY_640
*1421 PHY_641
*1422 PHY_642
*1423 PHY_643
*1424 PHY_644
*1425 PHY_645
*1426 PHY_646
*1427 PHY_647
*1428 PHY_648
*1429 PHY_649
*1430 PHY_650
*1431 PHY_651
*1432 PHY_652
*1433 PHY_653
*1434 PHY_654
*1435 PHY_655
*1436 PHY_656
*1437 PHY_657
*1438 PHY_658
*1439 PHY_659
*1440 PHY_660
*1441 PHY_661
*1442 PHY_662
*1443 PHY_663
*1444 PHY_664
*1445 PHY_665
*1446 PHY_666
*1447 PHY_667
*1448 PHY_668
*1449 PHY_669
*1450 PHY_670
*1451 PHY_671
*1452 PHY_672
*1453 PHY_673
*1454 PHY_674
*1455 PHY_675
*1456 PHY_676
*1457 PHY_677
*1458 PHY_678
*1459 PHY_679
*1460 PHY_680
*1461 PHY_681
*1462 PHY_682
*1463 PHY_683
*1464 PHY_684
*1465 PHY_685
*1466 PHY_686
*1467 PHY_687
*1468 PHY_688
*1469 PHY_689
*1470 PHY_690
*1471 PHY_691
*1472 PHY_692
*1473 PHY_693
*1474 PHY_694
*1475 PHY_695
*1476 PHY_696
*1477 PHY_697
*1478 PHY_698
*1479 PHY_699
*1480 PHY_700
*1481 PHY_701
*1482 PHY_702
*1483 PHY_703
*1484 PHY_704
*1485 PHY_705
*1486 PHY_706
*1487 PHY_707
*1488 PHY_708
*1489 PHY_709
*1490 PHY_710
*1491 PHY_711
*1492 PHY_712
*1493 PHY_713
*1494 PHY_714
*1495 PHY_715
*1496 PHY_716
*1497 PHY_717
*1498 PHY_718
*1499 PHY_719
*1500 PHY_720
*1501 PHY_721
*1502 PHY_722
*1503 PHY_723
*1504 PHY_724
*1505 PHY_725
*1506 PHY_726
*1507 PHY_727
*1508 PHY_728
*1509 PHY_729
*1510 PHY_730
*1511 PHY_731
*1512 PHY_732
*1513 PHY_733
*1514 PHY_734
*1515 PHY_735
*1516 PHY_736
*1517 PHY_737
*1518 PHY_738
*1519 PHY_739
*1520 PHY_740
*1521 PHY_741
*1522 PHY_742
*1523 PHY_743
*1524 PHY_744
*1525 PHY_745
*1526 PHY_746
*1527 PHY_747
*1528 PHY_748
*1529 PHY_749
*1530 PHY_750
*1531 PHY_751
*1532 PHY_752
*1533 PHY_753
*1534 PHY_754
*1535 PHY_755
*1536 PHY_756
*1537 PHY_757
*1538 PHY_758
*1539 PHY_759
*1540 PHY_760
*1541 PHY_761
*1542 PHY_762
*1543 PHY_763
*1544 PHY_764
*1545 PHY_765
*1546 PHY_766
*1547 PHY_767
*1548 PHY_768
*1549 PHY_769
*1550 PHY_770
*1551 PHY_771
*1552 PHY_772
*1553 PHY_773
*1554 PHY_774
*1555 PHY_775
*1556 PHY_776
*1557 PHY_777
*1558 PHY_778
*1559 PHY_779
*1560 PHY_780
*1561 PHY_781
*1562 PHY_782
*1563 PHY_783
*1564 PHY_784
*1565 PHY_785
*1566 PHY_786
*1567 PHY_787
*1568 PHY_788
*1569 PHY_789
*1570 PHY_790
*1571 PHY_791
*1572 PHY_792
*1573 PHY_793
*1574 PHY_794
*1575 PHY_795
*1576 PHY_796
*1577 PHY_797
*1578 PHY_798
*1579 PHY_799
*1580 PHY_800
*1581 PHY_801
*1582 PHY_802
*1583 PHY_803
*1584 PHY_804
*1585 PHY_805
*1586 PHY_806
*1587 PHY_807
*1588 PHY_808
*1589 PHY_809
*1590 PHY_810
*1591 PHY_811
*1592 PHY_812
*1593 PHY_813
*1594 PHY_814
*1595 PHY_815
*1596 PHY_816
*1597 PHY_817
*1598 PHY_818
*1599 PHY_819
*1600 PHY_820
*1601 PHY_821
*1602 PHY_822
*1603 PHY_823
*1604 PHY_824
*1605 PHY_825
*1606 PHY_826
*1607 PHY_827
*1608 PHY_828
*1609 PHY_829
*1610 PHY_830
*1611 PHY_831
*1612 PHY_832
*1613 PHY_833
*1614 PHY_834
*1615 PHY_835
*1616 PHY_836
*1617 PHY_837
*1618 PHY_838
*1619 PHY_839
*1620 PHY_840
*1621 PHY_841
*1622 PHY_842
*1623 PHY_843
*1624 PHY_844
*1625 PHY_845
*1626 PHY_846
*1627 PHY_847
*1628 PHY_848
*1629 PHY_849
*1630 PHY_850
*1631 PHY_851
*1632 PHY_852
*1633 PHY_853
*1634 PHY_854
*1635 PHY_855
*1636 PHY_856
*1637 PHY_857
*1638 PHY_858
*1639 PHY_859
*1640 PHY_860
*1641 PHY_861
*1642 PHY_862
*1643 PHY_863
*1644 PHY_864
*1645 PHY_865
*1646 PHY_866
*1647 PHY_867
*1648 PHY_868
*1649 PHY_869
*1650 PHY_870
*1651 PHY_871
*1652 PHY_872
*1653 PHY_873
*1654 PHY_874
*1655 PHY_875
*1656 PHY_876
*1657 PHY_877
*1658 PHY_878
*1659 PHY_879
*1660 PHY_880
*1661 PHY_881
*1662 PHY_882
*1663 PHY_883
*1664 PHY_884
*1665 PHY_885
*1666 PHY_886
*1667 PHY_887
*1668 PHY_888
*1669 PHY_889
*1670 PHY_890
*1671 PHY_891
*1672 PHY_892
*1673 PHY_893
*1674 PHY_894
*1675 PHY_895
*1676 PHY_896
*1677 PHY_897
*1678 PHY_898
*1679 PHY_899
*1680 PHY_900
*1681 PHY_901
*1682 PHY_902
*1683 PHY_903
*1684 PHY_904
*1685 PHY_905
*1686 PHY_906
*1687 PHY_907
*1688 PHY_908
*1689 PHY_909
*1690 PHY_910
*1691 PHY_911
*1692 PHY_912
*1693 PHY_913
*1694 PHY_914
*1695 PHY_915
*1696 PHY_916
*1697 PHY_917
*1698 PHY_918
*1699 PHY_919
*1700 PHY_920
*1701 PHY_921
*1702 PHY_922
*1703 PHY_923
*1704 PHY_924
*1705 PHY_925
*1706 PHY_926
*1707 PHY_927
*1708 PHY_928
*1709 PHY_929
*1710 PHY_930
*1711 PHY_931
*1712 PHY_932
*1713 PHY_933
*1714 PHY_934
*1715 PHY_935
*1716 PHY_936
*1717 PHY_937
*1718 PHY_938
*1719 PHY_939
*1720 PHY_940
*1721 PHY_941
*1722 PHY_942
*1723 PHY_943
*1724 PHY_944
*1725 PHY_945
*1726 PHY_946
*1727 PHY_947
*1728 PHY_948
*1729 PHY_949
*1730 PHY_950
*1731 PHY_951
*1732 PHY_952
*1733 PHY_953
*1734 PHY_954
*1735 PHY_955
*1736 PHY_956
*1737 PHY_957
*1738 PHY_958
*1739 PHY_959
*1740 PHY_960
*1741 PHY_961
*1742 PHY_962
*1743 PHY_963
*1744 PHY_964
*1745 PHY_965
*1746 PHY_966
*1747 PHY_967
*1748 PHY_968
*1749 PHY_969
*1750 PHY_970
*1751 PHY_971
*1752 PHY_972
*1753 PHY_973
*1754 PHY_974
*1755 PHY_975
*1756 PHY_976
*1757 PHY_977
*1758 PHY_978
*1759 PHY_979
*1760 PHY_980
*1761 PHY_981
*1762 PHY_982
*1763 PHY_983
*1764 PHY_984
*1765 repeater1
*1766 repeater2
*1767 repeater3
*1768 repeater4
*1769 clkbuf_0_clk
*1770 clkbuf_2_0__f_clk
*1771 clkbuf_2_1__f_clk
*1772 clkbuf_2_2__f_clk
*1773 clkbuf_2_3__f_clk
*1774 FILLER_0_4
*1775 FILLER_0_12
*1776 FILLER_0_20
*1777 FILLER_0_28
*1778 FILLER_0_30
*1779 FILLER_0_38
*1780 FILLER_0_46
*1781 FILLER_0_54
*1782 FILLER_0_59
*1783 FILLER_0_67
*1784 FILLER_0_75
*1785 FILLER_0_83
*1786 FILLER_0_88
*1787 FILLER_0_96
*1788 FILLER_0_104
*1789 FILLER_0_112
*1790 FILLER_0_117
*1791 FILLER_0_125
*1792 FILLER_0_133
*1793 FILLER_0_141
*1794 FILLER_0_146
*1795 FILLER_0_154
*1796 FILLER_0_162
*1797 FILLER_0_170
*1798 FILLER_0_175
*1799 FILLER_0_183
*1800 FILLER_0_191
*1801 FILLER_0_199
*1802 FILLER_0_204
*1803 FILLER_0_212
*1804 FILLER_0_220
*1805 FILLER_0_228
*1806 FILLER_0_233
*1807 FILLER_0_241
*1808 FILLER_0_249
*1809 FILLER_0_257
*1810 FILLER_0_262
*1811 FILLER_0_270
*1812 FILLER_0_278
*1813 FILLER_0_286
*1814 FILLER_0_291
*1815 FILLER_0_299
*1816 FILLER_0_307
*1817 FILLER_0_315
*1818 FILLER_0_320
*1819 FILLER_0_328
*1820 FILLER_0_336
*1821 FILLER_0_344
*1822 FILLER_0_349
*1823 FILLER_0_357
*1824 FILLER_0_365
*1825 FILLER_0_373
*1826 FILLER_0_378
*1827 FILLER_0_386
*1828 FILLER_0_394
*1829 FILLER_0_402
*1830 FILLER_0_407
*1831 FILLER_0_415
*1832 FILLER_0_423
*1833 FILLER_0_431
*1834 FILLER_0_436
*1835 FILLER_0_444
*1836 FILLER_0_452
*1837 FILLER_0_460
*1838 FILLER_0_465
*1839 FILLER_0_473
*1840 FILLER_0_481
*1841 FILLER_0_489
*1842 FILLER_0_494
*1843 FILLER_0_502
*1844 FILLER_0_510
*1845 FILLER_0_518
*1846 FILLER_0_523
*1847 FILLER_0_531
*1848 FILLER_0_539
*1849 FILLER_0_547
*1850 FILLER_0_552
*1851 FILLER_0_560
*1852 FILLER_0_568
*1853 FILLER_0_576
*1854 FILLER_1_4
*1855 FILLER_1_12
*1856 FILLER_1_20
*1857 FILLER_1_28
*1858 FILLER_1_30
*1859 FILLER_1_38
*1860 FILLER_1_46
*1861 FILLER_1_54
*1862 FILLER_1_62
*1863 FILLER_1_70
*1864 FILLER_1_78
*1865 FILLER_1_86
*1866 FILLER_1_88
*1867 FILLER_1_96
*1868 FILLER_1_104
*1869 FILLER_1_112
*1870 FILLER_1_120
*1871 FILLER_1_128
*1872 FILLER_1_136
*1873 FILLER_1_144
*1874 FILLER_1_146
*1875 FILLER_1_154
*1876 FILLER_1_162
*1877 FILLER_1_170
*1878 FILLER_1_178
*1879 FILLER_1_186
*1880 FILLER_1_194
*1881 FILLER_1_202
*1882 FILLER_1_204
*1883 FILLER_1_212
*1884 FILLER_1_220
*1885 FILLER_1_228
*1886 FILLER_1_236
*1887 FILLER_1_244
*1888 FILLER_1_252
*1889 FILLER_1_260
*1890 FILLER_1_262
*1891 FILLER_1_270
*1892 FILLER_1_278
*1893 FILLER_1_286
*1894 FILLER_1_294
*1895 FILLER_1_302
*1896 FILLER_1_310
*1897 FILLER_1_318
*1898 FILLER_1_320
*1899 FILLER_1_328
*1900 FILLER_1_336
*1901 FILLER_1_344
*1902 FILLER_1_352
*1903 FILLER_1_360
*1904 FILLER_1_368
*1905 FILLER_1_376
*1906 FILLER_1_378
*1907 FILLER_1_386
*1908 FILLER_1_394
*1909 FILLER_1_402
*1910 FILLER_1_410
*1911 FILLER_1_418
*1912 FILLER_1_426
*1913 FILLER_1_434
*1914 FILLER_1_436
*1915 FILLER_1_444
*1916 FILLER_1_452
*1917 FILLER_1_460
*1918 FILLER_1_468
*1919 FILLER_1_476
*1920 FILLER_1_484
*1921 FILLER_1_492
*1922 FILLER_1_494
*1923 FILLER_1_502
*1924 FILLER_1_510
*1925 FILLER_1_518
*1926 FILLER_1_526
*1927 FILLER_1_534
*1928 FILLER_1_542
*1929 FILLER_1_550
*1930 FILLER_1_552
*1931 FILLER_1_560
*1932 FILLER_1_568
*1933 FILLER_1_576
*1934 FILLER_2_4
*1935 FILLER_2_12
*1936 FILLER_2_20
*1937 FILLER_2_28
*1938 FILLER_2_36
*1939 FILLER_2_44
*1940 FILLER_2_52
*1941 FILLER_2_56
*1942 FILLER_2_59
*1943 FILLER_2_67
*1944 FILLER_2_75
*1945 FILLER_2_83
*1946 FILLER_2_91
*1947 FILLER_2_99
*1948 FILLER_2_107
*1949 FILLER_2_115
*1950 FILLER_2_117
*1951 FILLER_2_125
*1952 FILLER_2_133
*1953 FILLER_2_141
*1954 FILLER_2_149
*1955 FILLER_2_157
*1956 FILLER_2_165
*1957 FILLER_2_173
*1958 FILLER_2_175
*1959 FILLER_2_183
*1960 FILLER_2_191
*1961 FILLER_2_199
*1962 FILLER_2_207
*1963 FILLER_2_215
*1964 FILLER_2_223
*1965 FILLER_2_231
*1966 FILLER_2_233
*1967 FILLER_2_241
*1968 FILLER_2_249
*1969 FILLER_2_257
*1970 FILLER_2_265
*1971 FILLER_2_273
*1972 FILLER_2_281
*1973 FILLER_2_289
*1974 FILLER_2_291
*1975 FILLER_2_299
*1976 FILLER_2_307
*1977 FILLER_2_315
*1978 FILLER_2_323
*1979 FILLER_2_331
*1980 FILLER_2_339
*1981 FILLER_2_347
*1982 FILLER_2_349
*1983 FILLER_2_357
*1984 FILLER_2_365
*1985 FILLER_2_373
*1986 FILLER_2_381
*1987 FILLER_2_389
*1988 FILLER_2_397
*1989 FILLER_2_405
*1990 FILLER_2_407
*1991 FILLER_2_415
*1992 FILLER_2_423
*1993 FILLER_2_431
*1994 FILLER_2_439
*1995 FILLER_2_447
*1996 FILLER_2_455
*1997 FILLER_2_463
*1998 FILLER_2_465
*1999 FILLER_2_473
*2000 FILLER_2_481
*2001 FILLER_2_489
*2002 FILLER_2_497
*2003 FILLER_2_505
*2004 FILLER_2_513
*2005 FILLER_2_521
*2006 FILLER_2_523
*2007 FILLER_2_531
*2008 FILLER_2_539
*2009 FILLER_2_547
*2010 FILLER_2_555
*2011 FILLER_2_563
*2012 FILLER_2_571
*2013 FILLER_2_579
*2014 FILLER_3_4
*2015 FILLER_3_12
*2016 FILLER_3_20
*2017 FILLER_3_28
*2018 FILLER_3_30
*2019 FILLER_3_38
*2020 FILLER_3_46
*2021 FILLER_3_54
*2022 FILLER_3_62
*2023 FILLER_3_70
*2024 FILLER_3_78
*2025 FILLER_3_86
*2026 FILLER_3_88
*2027 FILLER_3_96
*2028 FILLER_3_104
*2029 FILLER_3_112
*2030 FILLER_3_120
*2031 FILLER_3_128
*2032 FILLER_3_136
*2033 FILLER_3_144
*2034 FILLER_3_146
*2035 FILLER_3_154
*2036 FILLER_3_162
*2037 FILLER_3_170
*2038 FILLER_3_178
*2039 FILLER_3_186
*2040 FILLER_3_194
*2041 FILLER_3_202
*2042 FILLER_3_204
*2043 FILLER_3_212
*2044 FILLER_3_220
*2045 FILLER_3_228
*2046 FILLER_3_236
*2047 FILLER_3_244
*2048 FILLER_3_252
*2049 FILLER_3_260
*2050 FILLER_3_262
*2051 FILLER_3_270
*2052 FILLER_3_278
*2053 FILLER_3_286
*2054 FILLER_3_294
*2055 FILLER_3_302
*2056 FILLER_3_310
*2057 FILLER_3_318
*2058 FILLER_3_320
*2059 FILLER_3_328
*2060 FILLER_3_336
*2061 FILLER_3_344
*2062 FILLER_3_352
*2063 FILLER_3_360
*2064 FILLER_3_368
*2065 FILLER_3_376
*2066 FILLER_3_378
*2067 FILLER_3_386
*2068 FILLER_3_394
*2069 FILLER_3_402
*2070 FILLER_3_410
*2071 FILLER_3_418
*2072 FILLER_3_426
*2073 FILLER_3_434
*2074 FILLER_3_436
*2075 FILLER_3_444
*2076 FILLER_3_452
*2077 FILLER_3_460
*2078 FILLER_3_468
*2079 FILLER_3_476
*2080 FILLER_3_484
*2081 FILLER_3_492
*2082 FILLER_3_494
*2083 FILLER_3_502
*2084 FILLER_3_510
*2085 FILLER_3_518
*2086 FILLER_3_526
*2087 FILLER_3_534
*2088 FILLER_3_542
*2089 FILLER_3_550
*2090 FILLER_3_552
*2091 FILLER_3_560
*2092 FILLER_3_568
*2093 FILLER_3_576
*2094 FILLER_4_4
*2095 FILLER_4_12
*2096 FILLER_4_20
*2097 FILLER_4_28
*2098 FILLER_4_36
*2099 FILLER_4_44
*2100 FILLER_4_52
*2101 FILLER_4_56
*2102 FILLER_4_59
*2103 FILLER_4_67
*2104 FILLER_4_75
*2105 FILLER_4_83
*2106 FILLER_4_91
*2107 FILLER_4_99
*2108 FILLER_4_107
*2109 FILLER_4_115
*2110 FILLER_4_117
*2111 FILLER_4_125
*2112 FILLER_4_133
*2113 FILLER_4_141
*2114 FILLER_4_149
*2115 FILLER_4_157
*2116 FILLER_4_165
*2117 FILLER_4_173
*2118 FILLER_4_175
*2119 FILLER_4_183
*2120 FILLER_4_191
*2121 FILLER_4_199
*2122 FILLER_4_207
*2123 FILLER_4_215
*2124 FILLER_4_223
*2125 FILLER_4_231
*2126 FILLER_4_233
*2127 FILLER_4_241