*SPEF "ieee 1481-1999"
*DESIGN "top"
*DATE "16:33:29 Tuesday October 07, 2025"
*VENDOR "The OpenROAD Project"
*PROGRAM "OpenROAD"
*VERSION "v2.0-25129-g8c29de770e"
*DESIGN_FLOW "NAME_SCOPE LOCAL" "PIN_CAP NONE"
*DIVIDER /
*DELIMITER :
*BUS_DELIMITER []
*T_UNIT 1 NS
*C_UNIT 1 PF
*R_UNIT 1 OHM
*L_UNIT 1 HENRY

*NAME_MAP
*1 mid
*2 w0
*5 w1
*6 b/net2
*8 b/leaf
*10 leaf
*11 load0
*12 load1
*13 b/buf0_1
*14 b/leaf_2

*D_NET *2 6.18647e-05
*CONN
*I *10:A I *D INV_X1
*I *11:A I *D INV_X1
*I *8:ZN O *D INV_X1
*CAP
1 *10:A 0
2 *11:A 1.67394e-05
3 *8:ZN 8.12034e-06
4 *2:6 2.48598e-05
5 *11:A *12:A 1.09597e-05
6 *2:6 *12:A 1.18547e-06
*RES
1 *8:ZN *2:6 5.92857 
2 *2:6 *11:A 7.25 
3 *2:6 *10:A 5 
*END

*D_NET *5 0.000136987
*CONN
*I *12:A I *D INV_X1
*I *13:Z O *D LOGIC0_X1
*CAP
1 *12:A 6.24209e-05
2 *13:Z 6.24209e-05
3 *11:A *12:A 1.09597e-05
4 *2:6 *12:A 1.18547e-06
*RES
1 *13:Z *12:A 17.6964 
*END

*D_NET *6 0.000182014
*CONN
*I *8:A I *D INV_X1
*I *14:Z O *D LOGIC0_X1
*CAP
1 *8:A 9.10068e-05
2 *14:Z 9.10068e-05
*RES
1 *14:Z *8:A 30.4286 
*END
