*SPEF "ieee 1481-1999"
*DESIGN "top"
*DATE "22:32:56 Thursday March 26, 2026"
*VENDOR "The OpenROAD Project"
*PROGRAM "OpenROAD"
*VERSION "26Q1-2587-g305aac2da5"
*DESIGN_FLOW "NAME_SCOPE LOCAL" "PIN_CAP NONE"
*DIVIDER /
*DELIMITER :
*BUS_DELIMITER []
*T_UNIT 1 NS
*C_UNIT 1 PF
*R_UNIT 1 OHM
*L_UNIT 1 HENRY

*NAME_MAP
*1 mid
*2 w0
*5 w1
*6 b/net2
*8 b/leaf
*10 leaf
*11 load0
*12 load1
*13 b/buf0_1
*14 b/leaf_2

*D_NET *2 8.26554e-05
*CONN
*I *11:A I *D INV_X1
*I *10:A I *D INV_X1
*I *8:ZN O *D INV_X1
*CAP
1 *11:A 0
2 *10:A 1.33728e-05
3 *8:ZN 1.22834e-05
4 *2:8 2.56562e-05
5 *2:8 *12:A 3.1343e-05
*RES
1 *8:ZN *2:8 8.17857 
2 *2:8 *10:A 7 
3 *2:8 *11:A 5 
*END

*D_NET *5 0.000150118
*CONN
*I *12:A I *D INV_X1
*I *13:Z O *D LOGIC0_X1
*CAP
1 *12:A 5.93874e-05
2 *13:Z 5.93874e-05
3 *2:8 *12:A 3.1343e-05
*RES
1 *13:Z *12:A 17.6964 
*END

*D_NET *6 0.000182014
*CONN
*I *8:A I *D INV_X1
*I *14:Z O *D LOGIC0_X1
*CAP
1 *8:A 9.10068e-05
2 *14:Z 9.10068e-05
*RES
1 *14:Z *8:A 30.4286 
*END
