*SPEF "ieee 1481-1999"
*DESIGN "top"
*DATE "21:21:51 Tuesday April 28, 2026"
*VENDOR "The OpenROAD Project"
*PROGRAM "OpenROAD"
*VERSION "26Q2-620-gda443a6e2c"
*DESIGN_FLOW "NAME_SCOPE LOCAL" "PIN_CAP NONE"
*DIVIDER /
*DELIMITER :
*BUS_DELIMITER []
*T_UNIT 1 NS
*C_UNIT 1 PF
*R_UNIT 1 OHM
*L_UNIT 1 HENRY

*NAME_MAP
*4 b/net2
*1 mid
*2 w0
*3 w1
*5 b/buf0_1
*6 b/leaf
*7 b/leaf_2
*8 leaf
*9 load0
*10 load1

*D_NET *4 0.000182014
*CONN
*I *6:A I *D INV_X1
*I *7:Z O *D LOGIC0_X1
*CAP
1 *6:A 9.10068e-05
2 *7:Z 9.10068e-05
*RES
1 *7:Z *6:A 30.4286
*END

*D_NET *2 8.26554e-05
*CONN
*I *9:A I *D INV_X1
*I *8:A I *D INV_X1
*I *6:ZN O *D INV_X1
*CAP
1 *9:A 0
2 *8:A 1.33728e-05
3 *6:ZN 1.22834e-05
4 *2:8 2.56562e-05
5 *2:8 *10:A 3.1343e-05
*RES
1 *6:ZN *2:8 8.17857
2 *2:8 *8:A 7
3 *2:8 *9:A 5
*END

*D_NET *3 0.000150118
*CONN
*I *10:A I *D INV_X1
*I *5:Z O *D LOGIC0_X1
*CAP
1 *10:A 5.93874e-05
2 *5:Z 5.93874e-05
3 *2:8 *10:A 3.1343e-05
*RES
1 *5:Z *10:A 17.6964
*END
