*SPEF "ieee 1481-1999"
*DESIGN "gcd"
*DATE "11:12:12 Friday May 15, 2026"
*VENDOR "The OpenROAD Project"
*PROGRAM "OpenROAD"
*VERSION "26Q2-1215-gbfd6383488"
*DESIGN_FLOW "NAME_SCOPE LOCAL" "PIN_CAP NONE"
*DIVIDER /
*DELIMITER :
*BUS_DELIMITER []
*T_UNIT 1 NS
*C_UNIT 1 PF
*R_UNIT 1 OHM
*L_UNIT 1 HENRY

*NAME_MAP
*57 _000_
*58 _001_
*59 _002_
*60 _003_
*61 _004_
*62 _005_
*63 _006_
*64 _007_
*65 _008_
*66 _009_
*67 _010_
*68 _011_
*69 _012_
*70 _013_
*71 _014_
*72 _015_
*73 _016_
*74 _017_
*75 _018_
*76 _019_
*77 _020_
*78 _021_
*79 _022_
*80 _023_
*81 _024_
*82 _025_
*83 _026_
*84 _027_
*85 _028_
*86 _029_
*87 _030_
*88 _031_
*89 _032_
*90 _033_
*91 _034_
*92 _035_
*93 _036_
*94 _037_
*95 _038_
*96 _039_
*97 _040_
*98 _041_
*99 _042_
*100 _043_
*101 _044_
*104 _047_
*105 _048_
*106 _049_
*107 _050_
*108 _051_
*109 _052_
*110 _053_
*111 _054_
*112 _055_
*113 _056_
*114 _057_
*115 _058_
*116 _059_
*117 _060_
*118 _061_
*119 _062_
*120 _063_
*121 _064_
*122 _065_
*123 _066_
*124 _067_
*125 _068_
*126 _069_
*127 _070_
*128 _071_
*129 _072_
*130 _073_
*131 _074_
*132 _075_
*133 _076_
*134 _077_
*135 _078_
*136 _079_
*137 _080_
*138 _081_
*139 _082_
*140 _083_
*141 _084_
*142 _085_
*143 _086_
*144 _087_
*145 _088_
*146 _089_
*147 _090_
*148 _091_
*149 _092_
*150 _093_
*151 _094_
*152 _095_
*153 _096_
*154 _097_
*155 _098_
*156 _099_
*157 _100_
*158 _101_
*159 _102_
*160 _103_
*161 _104_
*162 _105_
*163 _106_
*164 _107_
*165 _108_
*166 _109_
*167 _110_
*168 _111_
*169 _112_
*170 _113_
*171 _114_
*172 _115_
*173 _116_
*174 _117_
*175 _118_
*176 _119_
*177 _120_
*178 _121_
*179 _122_
*180 _123_
*181 _124_
*182 _125_
*183 _126_
*184 _127_
*185 _128_
*186 _129_
*187 _130_
*188 _131_
*189 _132_
*190 _133_
*191 _134_
*192 _135_
*193 _136_
*194 _137_
*195 _138_
*196 _139_
*197 _140_
*198 _141_
*199 _142_
*200 _143_
*201 _144_
*202 _145_
*203 _146_
*204 _147_
*205 _148_
*206 _149_
*207 _150_
*208 _151_
*209 _152_
*210 _153_
*211 _154_
*212 _155_
*213 _156_
*214 _157_
*215 _158_
*216 _159_
*217 _160_
*218 _161_
*219 _162_
*220 _163_
*221 _164_
*222 _165_
*223 _166_
*224 _167_
*225 _168_
*226 _169_
*227 _170_
*228 _171_
*229 _172_
*230 _173_
*231 _174_
*232 _175_
*233 _176_
*234 _177_
*235 _178_
*236 _179_
*237 _180_
*238 _181_
*239 _182_
*240 _183_
*241 _184_
*242 _185_
*243 _186_
*244 _187_
*245 _188_
*246 _189_
*247 _190_
*248 _191_
*249 _192_
*250 _193_
*251 _194_
*252 _195_
*253 _196_
*254 _197_
*256 _199_
*257 _200_
*260 _203_
*261 _204_
*262 _205_
*263 _206_
*265 _208_
*266 _209_
*267 _210_
*268 _211_
*269 _212_
*270 _213_
*271 _214_
*272 _215_
*273 _217_
*274 _218_
*275 _219_
*276 _220_
*277 _221_
*278 _222_
*279 _223_
*280 _224_
*281 _225_
*282 _226_
*283 _227_
*284 _228_
*285 _229_
*286 _230_
*287 _231_
*288 _232_
*289 _233_
*290 _234_
*291 _235_
*292 _236_
*293 _237_
*294 _238_
*295 _239_
*296 _240_
*297 _241_
*298 _242_
*299 _243_
*300 _244_
*301 _245_
*302 _246_
*303 _247_
*304 _248_
*305 _249_
*306 _250_
*307 _251_
*308 _252_
*309 _253_
*310 _254_
*311 _255_
*312 _256_
*313 _257_
*314 _258_
*315 _259_
*316 _260_
*317 _261_
*318 _262_
*319 _263_
*320 _264_
*321 _265_
*322 _266_
*323 _267_
*324 _268_
*326 _270_
*327 _271_
*329 _274_
*330 _276_
*331 _277_
*332 _278_
*333 _279_
*334 _280_
*335 _281_
*336 _282_
*337 _283_
*338 _284_
*339 _285_
*340 _286_
*341 _287_
*342 _288_
*343 _289_
*344 _290_
*345 _291_
*346 _292_
*347 _293_
*348 _294_
*349 _295_
*350 _296_
*351 _297_
*352 _298_
*353 _299_
*354 _300_
*355 _301_
*356 _302_
*357 _303_
*358 _304_
*359 _305_
*360 _306_
*361 _307_
*362 _308_
*363 _309_
*364 _310_
*365 _311_
*366 _312_
*367 _313_
*368 _314_
*369 _315_
*370 _316_
*371 _317_
*372 _318_
*373 _319_
*374 _320_
*375 _321_
*376 _322_
*377 _323_
*378 _324_
*1 clk
*259 clknet_0_clk
*258 clknet_2_0__leaf_clk
*255 clknet_2_1__leaf_clk
*103 clknet_2_2__leaf_clk
*102 clknet_2_3__leaf_clk
*379 ctrl\.state\.out\[1\]
*380 ctrl\.state\.out\[2\]
*381 dpath\.a_lt_b\$in0\[0\]
*382 dpath\.a_lt_b\$in0\[10\]
*383 dpath\.a_lt_b\$in0\[11\]
*384 dpath\.a_lt_b\$in0\[12\]
*385 dpath\.a_lt_b\$in0\[13\]
*386 dpath\.a_lt_b\$in0\[14\]
*387 dpath\.a_lt_b\$in0\[15\]
*388 dpath\.a_lt_b\$in0\[1\]
*389 dpath\.a_lt_b\$in0\[2\]
*390 dpath\.a_lt_b\$in0\[3\]
*391 dpath\.a_lt_b\$in0\[4\]
*392 dpath\.a_lt_b\$in0\[5\]
*393 dpath\.a_lt_b\$in0\[6\]
*394 dpath\.a_lt_b\$in0\[7\]
*395 dpath\.a_lt_b\$in0\[8\]
*396 dpath\.a_lt_b\$in0\[9\]
*397 dpath\.a_lt_b\$in1\[0\]
*398 dpath\.a_lt_b\$in1\[10\]
*399 dpath\.a_lt_b\$in1\[11\]
*400 dpath\.a_lt_b\$in1\[12\]
*401 dpath\.a_lt_b\$in1\[13\]
*402 dpath\.a_lt_b\$in1\[14\]
*403 dpath\.a_lt_b\$in1\[15\]
*404 dpath\.a_lt_b\$in1\[1\]
*405 dpath\.a_lt_b\$in1\[2\]
*406 dpath\.a_lt_b\$in1\[3\]
*407 dpath\.a_lt_b\$in1\[4\]
*408 dpath\.a_lt_b\$in1\[5\]
*409 dpath\.a_lt_b\$in1\[6\]
*410 dpath\.a_lt_b\$in1\[7\]
*411 dpath\.a_lt_b\$in1\[8\]
*412 dpath\.a_lt_b\$in1\[9\]
*328 net1
*325 net2
*34 net3
*264 net4
*2 req_msg[0]
*3 req_msg[10]
*4 req_msg[11]
*5 req_msg[12]
*6 req_msg[13]
*7 req_msg[14]
*8 req_msg[15]
*9 req_msg[16]
*10 req_msg[17]
*11 req_msg[18]
*12 req_msg[19]
*13 req_msg[1]
*14 req_msg[20]
*15 req_msg[21]
*16 req_msg[22]
*17 req_msg[23]
*18 req_msg[24]
*19 req_msg[25]
*20 req_msg[26]
*21 req_msg[27]
*22 req_msg[28]
*23 req_msg[29]
*24 req_msg[2]
*25 req_msg[30]
*26 req_msg[31]
*27 req_msg[3]
*28 req_msg[4]
*29 req_msg[5]
*30 req_msg[6]
*31 req_msg[7]
*32 req_msg[8]
*33 req_msg[9]
*413 req_rdy
*35 req_val
*36 reset
*37 resp_msg[0]
*38 resp_msg[10]
*39 resp_msg[11]
*40 resp_msg[12]
*41 resp_msg[13]
*42 resp_msg[14]
*43 resp_msg[15]
*44 resp_msg[1]
*45 resp_msg[2]
*46 resp_msg[3]
*47 resp_msg[4]
*48 resp_msg[5]
*49 resp_msg[6]
*50 resp_msg[7]
*51 resp_msg[8]
*52 resp_msg[9]
*53 resp_rdy
*54 resp_val
*1788 FILLER_0_104
*1789 FILLER_0_112
*1790 FILLER_0_117
*1775 FILLER_0_12
*1791 FILLER_0_125
*1792 FILLER_0_133
*1793 FILLER_0_141
*1794 FILLER_0_146
*1795 FILLER_0_154
*1796 FILLER_0_162
*1797 FILLER_0_170
*1798 FILLER_0_175
*1799 FILLER_0_183
*1800 FILLER_0_191
*1801 FILLER_0_199
*1776 FILLER_0_20
*1802 FILLER_0_204
*1803 FILLER_0_212
*1804 FILLER_0_220
*1805 FILLER_0_228
*1806 FILLER_0_233
*1807 FILLER_0_241
*1808 FILLER_0_249
*1809 FILLER_0_257
*1810 FILLER_0_262
*1811 FILLER_0_270
*1812 FILLER_0_278
*1777 FILLER_0_28
*1813 FILLER_0_286
*1814 FILLER_0_291
*1815 FILLER_0_299
*1778 FILLER_0_30
*1816 FILLER_0_307
*1817 FILLER_0_315
*1818 FILLER_0_320
*1819 FILLER_0_328
*1820 FILLER_0_336
*1821 FILLER_0_344
*1822 FILLER_0_349
*1823 FILLER_0_357
*1824 FILLER_0_365
*1825 FILLER_0_373
*1826 FILLER_0_378
*1779 FILLER_0_38
*1827 FILLER_0_386
*1828 FILLER_0_394
*1774 FILLER_0_4
*1829 FILLER_0_402
*1830 FILLER_0_407
*1831 FILLER_0_415
*1832 FILLER_0_423
*1833 FILLER_0_431
*1834 FILLER_0_436
*1835 FILLER_0_444
*1836 FILLER_0_452
*1780 FILLER_0_46
*1837 FILLER_0_460
*1838 FILLER_0_465
*1839 FILLER_0_473
*1840 FILLER_0_481
*1841 FILLER_0_489
*1842 FILLER_0_494
*1843 FILLER_0_502
*1844 FILLER_0_510
*1845 FILLER_0_518
*1846 FILLER_0_523
*1847 FILLER_0_531
*1848 FILLER_0_539
*1781 FILLER_0_54
*1849 FILLER_0_547
*1850 FILLER_0_552
*1851 FILLER_0_560
*1852 FILLER_0_568
*1853 FILLER_0_576
*1782 FILLER_0_59
*1783 FILLER_0_67
*1784 FILLER_0_75
*1785 FILLER_0_83
*1786 FILLER_0_88
*1787 FILLER_0_96
*2588 FILLER_10_107
*2589 FILLER_10_115
*2590 FILLER_10_117
*2575 FILLER_10_12
*2591 FILLER_10_125
*2592 FILLER_10_133
*2593 FILLER_10_141
*2594 FILLER_10_149
*2595 FILLER_10_157
*2596 FILLER_10_165
*2597 FILLER_10_173
*2598 FILLER_10_175
*2599 FILLER_10_183
*2600 FILLER_10_191
*2601 FILLER_10_199
*2576 FILLER_10_20
*2602 FILLER_10_207
*2603 FILLER_10_215
*2604 FILLER_10_223
*2605 FILLER_10_231
*2606 FILLER_10_233
*2607 FILLER_10_241
*2608 FILLER_10_249
*2609 FILLER_10_257
*2610 FILLER_10_265
*2611 FILLER_10_273
*2577 FILLER_10_28
*2612 FILLER_10_281
*2613 FILLER_10_289
*2614 FILLER_10_291
*2615 FILLER_10_299
*2616 FILLER_10_307
*2617 FILLER_10_315
*2618 FILLER_10_323
*2619 FILLER_10_331
*2620 FILLER_10_339
*2621 FILLER_10_347
*2622 FILLER_10_349
*2623 FILLER_10_357
*2578 FILLER_10_36
*2624 FILLER_10_365
*2625 FILLER_10_373
*2626 FILLER_10_381
*2627 FILLER_10_389
*2628 FILLER_10_397
*2574 FILLER_10_4
*2629 FILLER_10_405
*2630 FILLER_10_407
*2631 FILLER_10_415
*2632 FILLER_10_423
*2633 FILLER_10_431
*2634 FILLER_10_439
*2579 FILLER_10_44
*2635 FILLER_10_447
*2636 FILLER_10_455
*2637 FILLER_10_463
*2638 FILLER_10_465
*2639 FILLER_10_473
*2640 FILLER_10_481
*2641 FILLER_10_489
*2642 FILLER_10_497
*2643 FILLER_10_505
*2644 FILLER_10_513
*2580 FILLER_10_52
*2645 FILLER_10_521
*2646 FILLER_10_523
*2647 FILLER_10_531
*2648 FILLER_10_539
*2649 FILLER_10_547
*2650 FILLER_10_555
*2581 FILLER_10_56
*2651 FILLER_10_563
*2652 FILLER_10_571
*2653 FILLER_10_579
*2582 FILLER_10_59
*2583 FILLER_10_67
*2584 FILLER_10_75
*2585 FILLER_10_83
*2586 FILLER_10_91
*2587 FILLER_10_99
*2668 FILLER_11_104
*2669 FILLER_11_112
*2655 FILLER_11_12
*2670 FILLER_11_120
*2671 FILLER_11_128
*2672 FILLER_11_136
*2673 FILLER_11_144
*2674 FILLER_11_146
*2675 FILLER_11_154
*2676 FILLER_11_162
*2677 FILLER_11_170
*2678 FILLER_11_178
*2679 FILLER_11_186
*2680 FILLER_11_194
*2656 FILLER_11_20
*2681 FILLER_11_202
*2682 FILLER_11_204
*2683 FILLER_11_212
*2684 FILLER_11_220
*2685 FILLER_11_228
*2686 FILLER_11_236
*2687 FILLER_11_244
*2688 FILLER_11_252
*2689 FILLER_11_260
*2690 FILLER_11_262
*2691 FILLER_11_270
*2692 FILLER_11_278
*2657 FILLER_11_28
*2693 FILLER_11_286
*2694 FILLER_11_294
*2658 FILLER_11_30
*2695 FILLER_11_302
*2696 FILLER_11_310
*2697 FILLER_11_318
*2698 FILLER_11_320
*2699 FILLER_11_328
*2700 FILLER_11_336
*2701 FILLER_11_344
*2702 FILLER_11_352
*2703 FILLER_11_360
*2704 FILLER_11_368
*2705 FILLER_11_376
*2706 FILLER_11_378
*2659 FILLER_11_38
*2707 FILLER_11_386
*2708 FILLER_11_394
*2654 FILLER_11_4
*2709 FILLER_11_402
*2710 FILLER_11_410
*2711 FILLER_11_418
*2712 FILLER_11_426
*2713 FILLER_11_434
*2714 FILLER_11_436
*2715 FILLER_11_444
*2716 FILLER_11_452
*2660 FILLER_11_46
*2717 FILLER_11_460
*2718 FILLER_11_468
*2719 FILLER_11_476
*2720 FILLER_11_484
*2721 FILLER_11_492
*2722 FILLER_11_494
*2723 FILLER_11_502
*2724 FILLER_11_510
*2725 FILLER_11_518
*2726 FILLER_11_526
*2727 FILLER_11_534
*2661 FILLER_11_54
*2728 FILLER_11_542
*2729 FILLER_11_550
*2730 FILLER_11_552
*2731 FILLER_11_560
*2732 FILLER_11_568
*2733 FILLER_11_576
*2662 FILLER_11_62
*2663 FILLER_11_70
*2664 FILLER_11_78
*2665 FILLER_11_86
*2666 FILLER_11_88
*2667 FILLER_11_96
*2748 FILLER_12_107
*2749 FILLER_12_115
*2750 FILLER_12_117
*2735 FILLER_12_12
*2751 FILLER_12_125
*2752 FILLER_12_133
*2753 FILLER_12_137
*2754 FILLER_12_139
*2755 FILLER_12_145
*2756 FILLER_12_153
*2757 FILLER_12_161
*2758 FILLER_12_169
*2759 FILLER_12_173
*2760 FILLER_12_175
*2761 FILLER_12_183
*2762 FILLER_12_194
*2736 FILLER_12_20
*2763 FILLER_12_202
*2764 FILLER_12_206
*2765 FILLER_12_213
*2766 FILLER_12_221
*2767 FILLER_12_229
*2768 FILLER_12_231
*2769 FILLER_12_233
*2770 FILLER_12_241
*2771 FILLER_12_249
*2772 FILLER_12_257
*2773 FILLER_12_265
*2774 FILLER_12_273
*2737 FILLER_12_28
*2775 FILLER_12_281
*2776 FILLER_12_289
*2777 FILLER_12_291
*2778 FILLER_12_299
*2779 FILLER_12_307
*2780 FILLER_12_315
*2781 FILLER_12_323
*2782 FILLER_12_331
*2783 FILLER_12_339
*2784 FILLER_12_347
*2785 FILLER_12_349
*2786 FILLER_12_357
*2738 FILLER_12_36
*2787 FILLER_12_365
*2788 FILLER_12_373
*2789 FILLER_12_381
*2790 FILLER_12_389
*2791 FILLER_12_397
*2734 FILLER_12_4
*2792 FILLER_12_405
*2793 FILLER_12_407
*2794 FILLER_12_415
*2795 FILLER_12_423
*2796 FILLER_12_431
*2797 FILLER_12_439
*2739 FILLER_12_44
*2798 FILLER_12_447
*2799 FILLER_12_455
*2800 FILLER_12_463
*2801 FILLER_12_465
*2802 FILLER_12_473
*2803 FILLER_12_481
*2804 FILLER_12_489
*2805 FILLER_12_497
*2806 FILLER_12_505
*2807 FILLER_12_513
*2740 FILLER_12_52
*2808 FILLER_12_521
*2809 FILLER_12_523
*2810 FILLER_12_531
*2811 FILLER_12_539
*2812 FILLER_12_547
*2813 FILLER_12_555
*2741 FILLER_12_56
*2814 FILLER_12_563
*2815 FILLER_12_571
*2816 FILLER_12_579
*2742 FILLER_12_59
*2743 FILLER_12_67
*2744 FILLER_12_75
*2745 FILLER_12_83
*2746 FILLER_12_91
*2747 FILLER_12_99
*2831 FILLER_13_104
*2832 FILLER_13_112
*2818 FILLER_13_12
*2833 FILLER_13_120
*2834 FILLER_13_128
*2835 FILLER_13_136
*2836 FILLER_13_144
*2837 FILLER_13_146
*2838 FILLER_13_154
*2839 FILLER_13_162
*2840 FILLER_13_170
*2841 FILLER_13_183
*2842 FILLER_13_191
*2843 FILLER_13_199
*2819 FILLER_13_20
*2844 FILLER_13_204
*2845 FILLER_13_212
*2846 FILLER_13_220
*2847 FILLER_13_228
*2848 FILLER_13_236
*2849 FILLER_13_244
*2850 FILLER_13_252
*2851 FILLER_13_260
*2852 FILLER_13_262
*2853 FILLER_13_270
*2854 FILLER_13_278
*2820 FILLER_13_28
*2855 FILLER_13_286
*2856 FILLER_13_294
*2821 FILLER_13_30
*2857 FILLER_13_302
*2858 FILLER_13_310
*2859 FILLER_13_318
*2860 FILLER_13_320
*2861 FILLER_13_328
*2862 FILLER_13_336
*2863 FILLER_13_340
*2864 FILLER_13_348
*2865 FILLER_13_356
*2866 FILLER_13_364
*2867 FILLER_13_372
*2868 FILLER_13_376
*2869 FILLER_13_378
*2822 FILLER_13_38
*2870 FILLER_13_386
*2871 FILLER_13_394
*2817 FILLER_13_4
*2872 FILLER_13_402
*2873 FILLER_13_410
*2874 FILLER_13_418
*2875 FILLER_13_426
*2876 FILLER_13_434
*2877 FILLER_13_436
*2878 FILLER_13_444
*2879 FILLER_13_452
*2823 FILLER_13_46
*2880 FILLER_13_460
*2881 FILLER_13_468
*2882 FILLER_13_476
*2883 FILLER_13_484
*2884 FILLER_13_492
*2885 FILLER_13_494
*2886 FILLER_13_502
*2887 FILLER_13_510
*2888 FILLER_13_518
*2889 FILLER_13_526
*2890 FILLER_13_534
*2824 FILLER_13_54
*2891 FILLER_13_542
*2892 FILLER_13_550
*2893 FILLER_13_552
*2894 FILLER_13_560
*2895 FILLER_13_568
*2896 FILLER_13_576
*2825 FILLER_13_62
*2826 FILLER_13_70
*2827 FILLER_13_78
*2828 FILLER_13_86
*2829 FILLER_13_88
*2830 FILLER_13_96
*2911 FILLER_14_103
*2912 FILLER_14_105
*2913 FILLER_14_112
*2914 FILLER_14_117
*2898 FILLER_14_12
*2915 FILLER_14_125
*2916 FILLER_14_133
*2917 FILLER_14_137
*2918 FILLER_14_157
*2919 FILLER_14_165
*2920 FILLER_14_170
*2921 FILLER_14_175
*2922 FILLER_14_182
*2923 FILLER_14_190
*2924 FILLER_14_198
*2899 FILLER_14_20
*2925 FILLER_14_202
*2926 FILLER_14_208
*2927 FILLER_14_216
*2928 FILLER_14_224
*2929 FILLER_14_233
*2930 FILLER_14_240
*2931 FILLER_14_248
*2932 FILLER_14_256
*2933 FILLER_14_264
*2934 FILLER_14_272
*2900 FILLER_14_28
*2935 FILLER_14_280
*2936 FILLER_14_288
*2937 FILLER_14_291
*2938 FILLER_14_299
*2939 FILLER_14_307
*2940 FILLER_14_315
*2941 FILLER_14_323
*2942 FILLER_14_325
*2943 FILLER_14_331
*2944 FILLER_14_339
*2945 FILLER_14_347
*2946 FILLER_14_349
*2947 FILLER_14_357
*2901 FILLER_14_36
*2948 FILLER_14_365
*2949 FILLER_14_373
*2950 FILLER_14_381
*2951 FILLER_14_389
*2952 FILLER_14_397
*2897 FILLER_14_4
*2953 FILLER_14_405
*2954 FILLER_14_407
*2955 FILLER_14_415
*2956 FILLER_14_423
*2957 FILLER_14_431
*2958 FILLER_14_439
*2902 FILLER_14_44
*2959 FILLER_14_447
*2960 FILLER_14_455
*2961 FILLER_14_463
*2962 FILLER_14_465
*2963 FILLER_14_473
*2964 FILLER_14_481
*2965 FILLER_14_489
*2966 FILLER_14_497
*2967 FILLER_14_505
*2968 FILLER_14_513
*2903 FILLER_14_52
*2969 FILLER_14_521
*2970 FILLER_14_523
*2971 FILLER_14_531
*2972 FILLER_14_539
*2973 FILLER_14_547
*2974 FILLER_14_555
*2904 FILLER_14_56
*2975 FILLER_14_563
*2976 FILLER_14_571
*2977 FILLER_14_579
*2905 FILLER_14_59
*2906 FILLER_14_67
*2907 FILLER_14_75
*2908 FILLER_14_83
*2909 FILLER_14_91
*2910 FILLER_14_99
*2992 FILLER_15_100
*2993 FILLER_15_118
*2979 FILLER_15_12
*2994 FILLER_15_127
*2995 FILLER_15_135
*2996 FILLER_15_143
*2997 FILLER_15_146
*2998 FILLER_15_153
*2999 FILLER_15_161
*3000 FILLER_15_169
*3001 FILLER_15_177
*3002 FILLER_15_185
*3003 FILLER_15_193
*2980 FILLER_15_20
*3004 FILLER_15_201
*3005 FILLER_15_204
*3006 FILLER_15_212
*3007 FILLER_15_220
*3008 FILLER_15_228
*3009 FILLER_15_239
*3010 FILLER_15_247
*3011 FILLER_15_255
*3012 FILLER_15_259
*3013 FILLER_15_262
*3014 FILLER_15_272
*2981 FILLER_15_28
*3015 FILLER_15_280
*2982 FILLER_15_30
*3016 FILLER_15_301
*3017 FILLER_15_308
*3018 FILLER_15_316
*3019 FILLER_15_318
*3020 FILLER_15_320
*3021 FILLER_15_328
*3022 FILLER_15_336
*3023 FILLER_15_344
*3024 FILLER_15_352
*3025 FILLER_15_360
*3026 FILLER_15_368
*3027 FILLER_15_376
*3028 FILLER_15_378
*2983 FILLER_15_38
*3029 FILLER_15_386
*3030 FILLER_15_394
*2978 FILLER_15_4
*3031 FILLER_15_402
*3032 FILLER_15_410
*3033 FILLER_15_418
*3034 FILLER_15_426
*3035 FILLER_15_434
*3036 FILLER_15_436
*3037 FILLER_15_444
*3038 FILLER_15_452
*2984 FILLER_15_46
*3039 FILLER_15_460
*3040 FILLER_15_468
*3041 FILLER_15_476
*3042 FILLER_15_484
*3043 FILLER_15_492
*3044 FILLER_15_494
*3045 FILLER_15_502
*3046 FILLER_15_510
*3047 FILLER_15_518
*3048 FILLER_15_526
*3049 FILLER_15_534
*2985 FILLER_15_54
*3050 FILLER_15_542
*3051 FILLER_15_550
*3052 FILLER_15_552
*3053 FILLER_15_560
*3054 FILLER_15_568
*3055 FILLER_15_576
*2986 FILLER_15_62
*2987 FILLER_15_70
*2988 FILLER_15_78
*2989 FILLER_15_86
*2990 FILLER_15_88
*2991 FILLER_15_96
*3071 FILLER_16_105
*3072 FILLER_16_113
*3073 FILLER_16_115
*3074 FILLER_16_117
*3057 FILLER_16_12
*3075 FILLER_16_124
*3076 FILLER_16_132
*3077 FILLER_16_140
*3078 FILLER_16_144
*3079 FILLER_16_146
*3080 FILLER_16_150
*3081 FILLER_16_158
*3082 FILLER_16_166
*3083 FILLER_16_175
*3084 FILLER_16_183
*3085 FILLER_16_191
*3086 FILLER_16_199
*3058 FILLER_16_20
*3087 FILLER_16_206
*3088 FILLER_16_214
*3089 FILLER_16_222
*3090 FILLER_16_230
*3091 FILLER_16_233
*3092 FILLER_16_241
*3093 FILLER_16_249
*3094 FILLER_16_257
*3095 FILLER_16_265
*3096 FILLER_16_267
*3097 FILLER_16_271
*3098 FILLER_16_279
*3059 FILLER_16_28
*3099 FILLER_16_287
*3100 FILLER_16_289
*3101 FILLER_16_291
*3102 FILLER_16_300
*3103 FILLER_16_308
*3104 FILLER_16_316
*3105 FILLER_16_324
*3106 FILLER_16_329
*3107 FILLER_16_337
*3108 FILLER_16_345
*3109 FILLER_16_347
*3110 FILLER_16_349
*3111 FILLER_16_357
*3060 FILLER_16_36
*3112 FILLER_16_365
*3113 FILLER_16_373
*3114 FILLER_16_381
*3115 FILLER_16_389
*3116 FILLER_16_397
*3056 FILLER_16_4
*3117 FILLER_16_405
*3118 FILLER_16_407
*3119 FILLER_16_415
*3120 FILLER_16_423
*3121 FILLER_16_431
*3122 FILLER_16_439
*3061 FILLER_16_44
*3123 FILLER_16_447
*3124 FILLER_16_455
*3125 FILLER_16_463
*3126 FILLER_16_465
*3127 FILLER_16_473
*3128 FILLER_16_481
*3129 FILLER_16_489
*3130 FILLER_16_497
*3131 FILLER_16_505
*3132 FILLER_16_513
*3062 FILLER_16_52
*3133 FILLER_16_521
*3134 FILLER_16_523
*3135 FILLER_16_531
*3136 FILLER_16_539
*3137 FILLER_16_547
*3138 FILLER_16_555
*3063 FILLER_16_56
*3139 FILLER_16_563
*3140 FILLER_16_571
*3141 FILLER_16_579
*3064 FILLER_16_59
*3065 FILLER_16_67
*3066 FILLER_16_75
*3067 FILLER_16_83
*3068 FILLER_16_85
*3069 FILLER_16_89
*3070 FILLER_16_97
*3156 FILLER_17_104
*3157 FILLER_17_112
*3143 FILLER_17_12
*3158 FILLER_17_120
*3159 FILLER_17_128
*3160 FILLER_17_136
*3161 FILLER_17_144
*3162 FILLER_17_146
*3163 FILLER_17_154
*3164 FILLER_17_162
*3165 FILLER_17_170
*3166 FILLER_17_174
*3167 FILLER_17_179
*3168 FILLER_17_187
*3169 FILLER_17_195
*3170 FILLER_17_199
*3144 FILLER_17_20
*3171 FILLER_17_204
*3172 FILLER_17_226
*3173 FILLER_17_230
*3174 FILLER_17_235
*3175 FILLER_17_243
*3176 FILLER_17_251
*3177 FILLER_17_259
*3178 FILLER_17_262
*3179 FILLER_17_270
*3180 FILLER_17_278
*3145 FILLER_17_28
*3181 FILLER_17_286
*3182 FILLER_17_294
*3146 FILLER_17_30
*3183 FILLER_17_302
*3184 FILLER_17_310
*3185 FILLER_17_318
*3186 FILLER_17_320
*3187 FILLER_17_324
*3188 FILLER_17_326
*3189 FILLER_17_330
*3190 FILLER_17_338
*3191 FILLER_17_346
*3192 FILLER_17_354
*3193 FILLER_17_362
*3194 FILLER_17_370
*3195 FILLER_17_374
*3196 FILLER_17_376
*3197 FILLER_17_378
*3147 FILLER_17_38
*3198 FILLER_17_386
*3199 FILLER_17_394
*3142 FILLER_17_4
*3200 FILLER_17_402
*3201 FILLER_17_410
*3202 FILLER_17_418
*3203 FILLER_17_426
*3204 FILLER_17_434
*3205 FILLER_17_436
*3206 FILLER_17_444
*3207 FILLER_17_452
*3148 FILLER_17_46
*3208 FILLER_17_460
*3209 FILLER_17_468
*3210 FILLER_17_476
*3211 FILLER_17_484
*3212 FILLER_17_492
*3213 FILLER_17_494
*3214 FILLER_17_502
*3215 FILLER_17_510
*3216 FILLER_17_518
*3217 FILLER_17_526
*3218 FILLER_17_534
*3149 FILLER_17_54
*3219 FILLER_17_542
*3220 FILLER_17_550
*3221 FILLER_17_552
*3222 FILLER_17_560
*3223 FILLER_17_568
*3224 FILLER_17_576
*3150 FILLER_17_62
*3151 FILLER_17_70
*3152 FILLER_17_78
*3153 FILLER_17_86
*3154 FILLER_17_88
*3155 FILLER_17_96
*3239 FILLER_18_107
*3240 FILLER_18_115
*3241 FILLER_18_117
*3226 FILLER_18_12
*3242 FILLER_18_125
*3243 FILLER_18_133
*3244 FILLER_18_141
*3245 FILLER_18_149
*3246 FILLER_18_157
*3247 FILLER_18_165
*3248 FILLER_18_170
*3249 FILLER_18_175
*3250 FILLER_18_182
*3251 FILLER_18_190
*3252 FILLER_18_198
*3227 FILLER_18_20
*3253 FILLER_18_206
*3254 FILLER_18_214
*3255 FILLER_18_222
*3256 FILLER_18_230
*3257 FILLER_18_233
*3258 FILLER_18_241
*3259 FILLER_18_245
*3260 FILLER_18_264
*3261 FILLER_18_272
*3228 FILLER_18_28
*3262 FILLER_18_280
*3263 FILLER_18_288
*3264 FILLER_18_291
*3265 FILLER_18_299
*3266 FILLER_18_307
*3267 FILLER_18_315
*3268 FILLER_18_337
*3269 FILLER_18_345
*3270 FILLER_18_347
*3271 FILLER_18_349
*3272 FILLER_18_357
*3229 FILLER_18_36
*3273 FILLER_18_365
*3274 FILLER_18_373
*3275 FILLER_18_381
*3276 FILLER_18_389
*3277 FILLER_18_397
*3225 FILLER_18_4
*3278 FILLER_18_405
*3279 FILLER_18_407
*3280 FILLER_18_415
*3281 FILLER_18_423
*3282 FILLER_18_431
*3283 FILLER_18_439
*3230 FILLER_18_44
*3284 FILLER_18_447
*3285 FILLER_18_455
*3286 FILLER_18_463
*3287 FILLER_18_465
*3288 FILLER_18_473
*3289 FILLER_18_481
*3290 FILLER_18_489
*3291 FILLER_18_497
*3292 FILLER_18_505
*3293 FILLER_18_513
*3231 FILLER_18_52
*3294 FILLER_18_521
*3295 FILLER_18_523
*3296 FILLER_18_531
*3297 FILLER_18_539
*3298 FILLER_18_547
*3299 FILLER_18_555
*3232 FILLER_18_56
*3300 FILLER_18_563
*3301 FILLER_18_571
*3302 FILLER_18_579
*3233 FILLER_18_59
*3234 FILLER_18_67
*3235 FILLER_18_75
*3236 FILLER_18_83
*3237 FILLER_18_91
*3238 FILLER_18_99
*3317 FILLER_19_104
*3318 FILLER_19_112
*3304 FILLER_19_12
*3319 FILLER_19_120
*3320 FILLER_19_128
*3321 FILLER_19_141
*3322 FILLER_19_146
*3323 FILLER_19_154
*3324 FILLER_19_162
*3325 FILLER_19_170
*3326 FILLER_19_178
*3327 FILLER_19_186
*3328 FILLER_19_194
*3305 FILLER_19_20
*3329 FILLER_19_202
*3330 FILLER_19_204
*3331 FILLER_19_212
*3332 FILLER_19_220
*3333 FILLER_19_228
*3334 FILLER_19_236
*3335 FILLER_19_244
*3336 FILLER_19_257
*3337 FILLER_19_262
*3338 FILLER_19_270
*3339 FILLER_19_278
*3306 FILLER_19_28
*3340 FILLER_19_286
*3341 FILLER_19_295
*3307 FILLER_19_30
*3342 FILLER_19_303
*3343 FILLER_19_311
*3344 FILLER_19_320
*3345 FILLER_19_324
*3346 FILLER_19_329
*3347 FILLER_19_337
*3348 FILLER_19_345
*3349 FILLER_19_353
*3350 FILLER_19_361
*3351 FILLER_19_369
*3352 FILLER_19_378
*3308 FILLER_19_38
*3353 FILLER_19_386
*3354 FILLER_19_394
*3303 FILLER_19_4
*3355 FILLER_19_402
*3356 FILLER_19_410
*3357 FILLER_19_418
*3358 FILLER_19_426
*3359 FILLER_19_434
*3360 FILLER_19_436
*3361 FILLER_19_444
*3362 FILLER_19_452
*3309 FILLER_19_46
*3363 FILLER_19_460
*3364 FILLER_19_468
*3365 FILLER_19_476
*3366 FILLER_19_484
*3367 FILLER_19_492
*3368 FILLER_19_494
*3369 FILLER_19_502
*3370 FILLER_19_510
*3371 FILLER_19_518
*3372 FILLER_19_526
*3373 FILLER_19_534
*3310 FILLER_19_54
*3374 FILLER_19_542
*3375 FILLER_19_550
*3376 FILLER_19_552
*3377 FILLER_19_560
*3378 FILLER_19_568
*3379 FILLER_19_576
*3311 FILLER_19_62
*3312 FILLER_19_70
*3313 FILLER_19_78
*3314 FILLER_19_86
*3315 FILLER_19_88
*3316 FILLER_19_96
*1868 FILLER_1_104
*1869 FILLER_1_112
*1855 FILLER_1_12
*1870 FILLER_1_120
*1871 FILLER_1_128
*1872 FILLER_1_136
*1873 FILLER_1_144
*1874 FILLER_1_146
*1875 FILLER_1_154
*1876 FILLER_1_162
*1877 FILLER_1_170
*1878 FILLER_1_178
*1879 FILLER_1_186
*1880 FILLER_1_194
*1856 FILLER_1_20
*1881 FILLER_1_202
*1882 FILLER_1_204
*1883 FILLER_1_212
*1884 FILLER_1_220
*1885 FILLER_1_228
*1886 FILLER_1_236
*1887 FILLER_1_244
*1888 FILLER_1_252
*1889 FILLER_1_260
*1890 FILLER_1_262
*1891 FILLER_1_270
*1892 FILLER_1_278
*1857 FILLER_1_28
*1893 FILLER_1_286
*1894 FILLER_1_294
*1858 FILLER_1_30
*1895 FILLER_1_302
*1896 FILLER_1_310
*1897 FILLER_1_318
*1898 FILLER_1_320
*1899 FILLER_1_328
*1900 FILLER_1_336
*1901 FILLER_1_344
*1902 FILLER_1_352
*1903 FILLER_1_360
*1904 FILLER_1_368
*1905 FILLER_1_376
*1906 FILLER_1_378
*1859 FILLER_1_38
*1907 FILLER_1_386
*1908 FILLER_1_394
*1854 FILLER_1_4
*1909 FILLER_1_402
*1910 FILLER_1_410
*1911 FILLER_1_418
*1912 FILLER_1_426
*1913 FILLER_1_434
*1914 FILLER_1_436
*1915 FILLER_1_444
*1916 FILLER_1_452
*1860 FILLER_1_46
*1917 FILLER_1_460
*1918 FILLER_1_468
*1919 FILLER_1_476
*1920 FILLER_1_484
*1921 FILLER_1_492
*1922 FILLER_1_494
*1923 FILLER_1_502
*1924 FILLER_1_510
*1925 FILLER_1_518
*1926 FILLER_1_526
*1927 FILLER_1_534
*1861 FILLER_1_54
*1928 FILLER_1_542
*1929 FILLER_1_550
*1930 FILLER_1_552
*1931 FILLER_1_560
*1932 FILLER_1_568
*1933 FILLER_1_576
*1862 FILLER_1_62
*1863 FILLER_1_70
*1864 FILLER_1_78
*1865 FILLER_1_86
*1866 FILLER_1_88
*1867 FILLER_1_96
*3394 FILLER_20_103
*3395 FILLER_20_105
*3396 FILLER_20_112
*3397 FILLER_20_117
*3381 FILLER_20_12
*3398 FILLER_20_125
*3399 FILLER_20_133
*3400 FILLER_20_141
*3401 FILLER_20_148
*3402 FILLER_20_156
*3403 FILLER_20_164
*3404 FILLER_20_172
*3405 FILLER_20_175
*3406 FILLER_20_183
*3407 FILLER_20_191
*3408 FILLER_20_199
*3382 FILLER_20_20
*3409 FILLER_20_207
*3410 FILLER_20_215
*3411 FILLER_20_223
*3412 FILLER_20_231
*3413 FILLER_20_233
*3414 FILLER_20_244
*3415 FILLER_20_253
*3416 FILLER_20_261
*3417 FILLER_20_269
*3418 FILLER_20_277
*3383 FILLER_20_28
*3419 FILLER_20_285
*3420 FILLER_20_289
*3421 FILLER_20_291
*3422 FILLER_20_299
*3423 FILLER_20_307
*3424 FILLER_20_315
*3425 FILLER_20_323
*3426 FILLER_20_331
*3427 FILLER_20_339
*3428 FILLER_20_347
*3429 FILLER_20_349
*3430 FILLER_20_357
*3384 FILLER_20_36
*3431 FILLER_20_365
*3432 FILLER_20_373
*3433 FILLER_20_381
*3434 FILLER_20_389
*3435 FILLER_20_397
*3380 FILLER_20_4
*3436 FILLER_20_405
*3437 FILLER_20_407
*3438 FILLER_20_415
*3439 FILLER_20_423
*3440 FILLER_20_431
*3441 FILLER_20_439
*3385 FILLER_20_44
*3442 FILLER_20_447
*3443 FILLER_20_455
*3444 FILLER_20_463
*3445 FILLER_20_465
*3446 FILLER_20_473
*3447 FILLER_20_481
*3448 FILLER_20_489
*3449 FILLER_20_497
*3450 FILLER_20_505
*3451 FILLER_20_513
*3386 FILLER_20_52
*3452 FILLER_20_521
*3453 FILLER_20_523
*3454 FILLER_20_531
*3455 FILLER_20_539
*3456 FILLER_20_547
*3457 FILLER_20_555
*3387 FILLER_20_56
*3458 FILLER_20_563
*3459 FILLER_20_571
*3460 FILLER_20_579
*3388 FILLER_20_59
*3389 FILLER_20_67
*3390 FILLER_20_75
*3391 FILLER_20_83
*3392 FILLER_20_91
*3393 FILLER_20_99
*3475 FILLER_21_114
*3462 FILLER_21_12
*3476 FILLER_21_123
*3477 FILLER_21_132
*3478 FILLER_21_140
*3479 FILLER_21_144
*3480 FILLER_21_146
*3481 FILLER_21_150
*3482 FILLER_21_152
*3483 FILLER_21_171
*3484 FILLER_21_179
*3485 FILLER_21_187
*3486 FILLER_21_194
*3463 FILLER_21_20
*3487 FILLER_21_202
*3488 FILLER_21_204
*3489 FILLER_21_208
*3490 FILLER_21_214
*3491 FILLER_21_222
*3492 FILLER_21_230
*3493 FILLER_21_238
*3494 FILLER_21_246
*3495 FILLER_21_254
*3496 FILLER_21_258
*3497 FILLER_21_260
*3498 FILLER_21_262
*3499 FILLER_21_270
*3500 FILLER_21_274
*3464 FILLER_21_28
*3501 FILLER_21_281
*3465 FILLER_21_30
*3502 FILLER_21_302
*3503 FILLER_21_310
*3504 FILLER_21_318
*3505 FILLER_21_320
*3506 FILLER_21_328
*3507 FILLER_21_336
*3508 FILLER_21_344
*3509 FILLER_21_352
*3510 FILLER_21_360
*3511 FILLER_21_368
*3512 FILLER_21_376
*3513 FILLER_21_378
*3466 FILLER_21_38
*3514 FILLER_21_386
*3515 FILLER_21_394
*3461 FILLER_21_4
*3516 FILLER_21_402
*3517 FILLER_21_410
*3518 FILLER_21_418
*3519 FILLER_21_426
*3520 FILLER_21_434
*3521 FILLER_21_436
*3522 FILLER_21_444
*3523 FILLER_21_452
*3467 FILLER_21_46
*3524 FILLER_21_460
*3525 FILLER_21_468
*3526 FILLER_21_476
*3527 FILLER_21_484
*3528 FILLER_21_492
*3529 FILLER_21_494
*3530 FILLER_21_502
*3531 FILLER_21_510
*3532 FILLER_21_518
*3533 FILLER_21_526
*3534 FILLER_21_534
*3468 FILLER_21_54
*3535 FILLER_21_542
*3536 FILLER_21_550
*3537 FILLER_21_552
*3538 FILLER_21_560
*3539 FILLER_21_568
*3540 FILLER_21_576
*3469 FILLER_21_62
*3470 FILLER_21_70
*3471 FILLER_21_78
*3472 FILLER_21_86
*3473 FILLER_21_88
*3474 FILLER_21_96
*3555 FILLER_22_107
*3556 FILLER_22_115
*3557 FILLER_22_117
*3542 FILLER_22_12
*3558 FILLER_22_125
*3559 FILLER_22_133
*3560 FILLER_22_141
*3561 FILLER_22_149
*3562 FILLER_22_157
*3563 FILLER_22_165
*3564 FILLER_22_173
*3565 FILLER_22_175
*3566 FILLER_22_189
*3567 FILLER_22_197
*3543 FILLER_22_20
*3568 FILLER_22_205
*3569 FILLER_22_213
*3570 FILLER_22_221
*3571 FILLER_22_229
*3572 FILLER_22_231
*3573 FILLER_22_233
*3574 FILLER_22_241
*3575 FILLER_22_249
*3576 FILLER_22_253
*3577 FILLER_22_255
*3578 FILLER_22_259
*3579 FILLER_22_267
*3580 FILLER_22_275
*3544 FILLER_22_28
*3581 FILLER_22_283
*3582 FILLER_22_287
*3583 FILLER_22_289
*3584 FILLER_22_291
*3585 FILLER_22_299
*3586 FILLER_22_307
*3587 FILLER_22_315
*3588 FILLER_22_323
*3589 FILLER_22_327
*3590 FILLER_22_331
*3591 FILLER_22_339
*3592 FILLER_22_347
*3593 FILLER_22_349
*3594 FILLER_22_357
*3545 FILLER_22_36
*3595 FILLER_22_365
*3596 FILLER_22_373
*3597 FILLER_22_381
*3598 FILLER_22_389
*3599 FILLER_22_397
*3541 FILLER_22_4
*3600 FILLER_22_405
*3601 FILLER_22_407
*3602 FILLER_22_415
*3603 FILLER_22_423
*3604 FILLER_22_431
*3605 FILLER_22_439
*3546 FILLER_22_44
*3606 FILLER_22_447
*3607 FILLER_22_455
*3608 FILLER_22_463
*3609 FILLER_22_465
*3610 FILLER_22_473
*3611 FILLER_22_481
*3612 FILLER_22_489
*3613 FILLER_22_497
*3614 FILLER_22_505
*3615 FILLER_22_513
*3547 FILLER_22_52
*3616 FILLER_22_521
*3617 FILLER_22_523
*3618 FILLER_22_531
*3619 FILLER_22_539
*3620 FILLER_22_547
*3621 FILLER_22_555
*3548 FILLER_22_56
*3622 FILLER_22_563
*3623 FILLER_22_571
*3624 FILLER_22_579
*3549 FILLER_22_59
*3550 FILLER_22_67
*3551 FILLER_22_75
*3552 FILLER_22_83
*3553 FILLER_22_91
*3554 FILLER_22_99
*3639 FILLER_23_104
*3640 FILLER_23_112
*3626 FILLER_23_12
*3641 FILLER_23_120
*3642 FILLER_23_128
*3643 FILLER_23_136
*3644 FILLER_23_144
*3645 FILLER_23_146
*3646 FILLER_23_154
*3647 FILLER_23_162
*3648 FILLER_23_170
*3649 FILLER_23_178
*3650 FILLER_23_182
*3651 FILLER_23_187
*3652 FILLER_23_195
*3627 FILLER_23_20
*3653 FILLER_23_204
*3654 FILLER_23_212
*3655 FILLER_23_220
*3656 FILLER_23_228
*3657 FILLER_23_235
*3658 FILLER_23_243
*3659 FILLER_23_251