*SPEF "ieee 1481-1999"
*DESIGN "gcd"
*DATE "11:11:11 Fri 11 11, 1111"
*VENDOR "The OpenROAD Project"
*PROGRAM "OpenROAD"
*VERSION "1.0"
*DESIGN_FLOW "NAME_SCOPE LOCAL" "PIN_CAP NONE"
*DIVIDER /
*DELIMITER :
*BUS_DELIMITER []
*T_UNIT 1 NS
*C_UNIT 1 FF
*R_UNIT 1 KOHM
*L_UNIT 1 HENRY

*PORTS
clk I
req_msg[31] I
req_msg[30] I
req_msg[29] I
req_msg[28] I
req_msg[27] I
req_msg[26] I
req_msg[25] I
req_msg[24] I
req_msg[23] I
req_msg[22] I
req_msg[21] I
req_msg[20] I
req_msg[19] I
req_msg[18] I
req_msg[17] I
req_msg[16] I
req_msg[15] I
req_msg[14] I
req_msg[13] I
req_msg[12] I
req_msg[11] I
req_msg[10] I
req_msg[9] I
req_msg[8] I
req_msg[7] I
req_msg[6] I
req_msg[5] I
req_msg[4] I
req_msg[3] I
req_msg[2] I
req_msg[1] I
req_msg[0] I
req_rdy O
req_val I
reset I
resp_msg[15] O
resp_msg[14] O
resp_msg[13] O
resp_msg[12] O
resp_msg[11] O
resp_msg[10] O
resp_msg[9] O
resp_msg[8] O
resp_msg[7] O
resp_msg[6] O
resp_msg[5] O
resp_msg[4] O
resp_msg[3] O
resp_msg[2] O
resp_msg[1] O
resp_msg[0] O
resp_rdy I
resp_val O

*D_NET clk 330.569
*CONN
*P clk I
*I _858_:CK I *D DFF_X1
*I _859_:CK I *D DFF_X1
*I _860_:CK I *D DFF_X1
*I _861_:CK I *D DFF_X1
*I _862_:CK I *D DFF_X1
*I _863_:CK I *D DFF_X1
*I _864_:CK I *D DFF_X1
*I _865_:CK I *D DFF_X1
*I _866_:CK I *D DFF_X1
*I _867_:CK I *D DFF_X1
*I _868_:CK I *D DFF_X1
*I _869_:CK I *D DFF_X1
*I _870_:CK I *D DFF_X1
*I _871_:CK I *D DFF_X1
*I _872_:CK I *D DFF_X1
*I _873_:CK I *D DFF_X1
*I _874_:CK I *D DFF_X1
*I _875_:CK I *D DFF_X1
*I _876_:CK I *D DFF_X1
*I _877_:CK I *D DFF_X1
*I _878_:CK I *D DFF_X1
*I _879_:CK I *D DFF_X1
*I _880_:CK I *D DFF_X1
*I _881_:CK I *D DFF_X1
*I _882_:CK I *D DFF_X1
*I _883_:CK I *D DFF_X1
*I _884_:CK I *D DFF_X1
*I _885_:CK I *D DFF_X1
*I _886_:CK I *D DFF_X1
*I _887_:CK I *D DFF_X1
*I _888_:CK I *D DFF_X1
*I _889_:CK I *D DFF_X1
*I _890_:CK I *D DFF_X1
*I _891_:CK I *D DFF_X1
*I _892_:CK I *D DFF_X1
*CAP
1 clk:1 3.15
2 clk:2 1.605
3 clk:3 3.78
4 clk:4 3.735
5 clk:5 0.53
6 clk:6 1.05
7 clk:7 4.2
8 clk:8 2.1
9 clk:9 3.15
10 clk:10 3.15
11 clk:11 4.2
12 clk:12 2.81
13 clk:13 2.1
14 clk:14 2.475
15 clk:15 2.295
16 clk:16 6.66
17 clk:17 3.15
18 clk:18 3.15
19 clk:19 1.05
20 clk:20 1.775
21 clk:21 3.15
22 clk:22 2.665
23 clk:23 2.125
24 clk:24 1.05
25 clk:25 1.05
26 clk:26 1.8
27 clk:27 5.25
28 clk:28 3.58
29 clk:29 6.3
30 clk:30 2.1
31 clk:31 6.3
32 clk:32 0.355
33 clk:33 7.35
34 clk:34 7.35
35 clk:35 8.4
36 clk:36 3.15
37 clk:37 2.1
38 clk:38 1.05
39 clk:39 1.32
40 clk:40 2.46
41 clk:41 1.05
42 clk:42 2.76
43 clk:43 0.75
44 clk:44 1.05
45 clk:45 2.1
46 clk:46 0.225
47 clk:47 6.3
48 clk:48 3.15
49 clk:49 0.32
50 clk:50 0.415
51 clk:51 1.05
52 clk:52 4.2
53 clk:53 5.615
54 clk:54 5.25
55 clk:55 8.4
56 clk:56 0.645
57 clk:57 3.15
58 clk:58 2.1
59 clk:59 4.89
60 clk:60 2.1
61 clk:61 4.2
62 clk:62 5.25
63 clk:63 0.295
64 clk:64 5.25
65 clk:65 10.5
66 clk:66 10.5
67 clk:67 2.1
68 clk:68 2.1
69 clk:69 1.37
70 clk:70 2.66
71 clk:71 7.81
72 clk:72 2.1
73 clk:73 1.05
74 clk:74 4.2
75 clk:75 0.18
76 clk:76 1.05
77 clk:77 3.15
78 clk:78 4.2
79 clk:79 5.25
80 clk:80 7.735
81 clk:81 1.05
82 clk:82 3.15
83 clk:83 5.25
84 clk:84 5.81
85 clk:85 1.05
86 clk:86 1.05
87 clk:87 5.25
88 clk:88 8.645
89 clk:89 1.425
90 clk:90 1.05
91 clk:91 1.05
92 clk:92 3.15
93 clk:93 1.05
94 clk:94 3.525
95 clk:95 1.855
96 clk:96 3.15
97 clk:97 1.05
98 clk:98 2.1
99 clk:99 1.05
100 clk:100 0
101 clk:101 0
102 clk:102 0
103 clk:103 0.103175
104 clk:104 0.134742
*RES
1 clk:1 clk:2 4.2
2 clk:3 clk:4 12.6
3 clk:5 clk:6 0.005
4 clk:6 clk:7 4.2
5 clk:7 clk:8 0.005
6 clk:7 clk:9 12.6
7 clk:9 clk:10 0.005
8 clk:10 clk:11 12.6
9 clk:12 clk:13 8.4
10 clk:14 clk:15 8.4
11 clk:16 clk:17 0.005
12 clk:17 clk:18 12.6
13 clk:18 clk:19 0.005
14 clk:19 clk:20 4.2
15 clk:21 clk:22 8.4
16 clk:23 clk:24 4.2
17 clk:25 clk:26 4.2
18 clk:27 clk:28 12.6
19 clk:13 clk:29 0.005
20 clk:29 clk:30 8.4
21 clk:30 clk:31 0.005
22 clk:32 clk:33 0.005
23 clk:33 clk:34 25.2
24 clk:34 clk:15 0.005
25 clk:35 clk:36 0.005
26 clk:36 clk:37 8.4
27 clk:37 clk:38 0.005
28 clk:38 clk:39 4.2
29 clk:40 clk:41 0.005
30 clk:41 clk:36 4.2
31 clk:42 clk:27 8.4
32 clk:43 clk:44 0.005
33 clk:44 clk:45 4.2
34 clk:45 clk:24 0.005
35 clk:46 clk:47 0.005
36 clk:47 clk:48 12.6
37 clk:48 clk:49 0.005
38 clk:50 clk:51 0.005
39 clk:51 clk:52 4.2
40 clk:52 clk:27 0.005
41 clk:53 clk:1 8.4
42 clk:1 clk:54 0.005
43 clk:54 clk:55 21
44 clk:55 clk:56 0.005
45 clk:55 clk:57 12.6
46 clk:57 clk:58 0.005
47 clk:58 clk:59 8.4
48 clk:60 clk:61 0.005
49 clk:61 clk:62 16.8
50 clk:62 clk:3 0.005
51 clk:63 clk:64 0.005
52 clk:64 clk:29 16.8
53 clk:65 clk:66 42
54 clk:65 clk:67 0.005
55 clk:67 clk:68 8.4
56 clk:68 clk:69 0.005
57 clk:60 clk:21 4.2
58 clk:70 clk:40 8.4
59 clk:71 clk:35 21
60 clk:72 clk:71 8.4
61 clk:72 clk:73 0.005
62 clk:73 clk:74 4.2
63 clk:74 clk:75 0.005
64 clk:45 clk:76 4.2
65 clk:76 clk:77 0.005
66 clk:77 clk:16 12.6
67 clk:25 clk:78 0.005
68 clk:78 clk:47 12.6
69 clk:79 clk:80 21
70 clk:79 clk:81 0.005
71 clk:81 clk:78 4.2
72 clk:52 clk:82 12.6
73 clk:82 clk:83 0.005
74 clk:84 clk:31 21
75 clk:59 clk:8 8.4
76 clk:11 clk:85 0.005
77 clk:85 clk:64 4.2
78 clk:34 clk:86 4.2
79 clk:86 clk:87 0.005
80 clk:87 clk:88 21
81 clk:89 clk:60 4.2
82 clk:84 clk:90 0.005
83 clk:90 clk:91 4.2
84 clk:91 clk:21 0.005
85 clk:74 clk:92 12.6
86 clk:92 clk:93 0.005
87 clk:94 clk:93 4.2
88 clk:80 clk:94 8.4
89 clk:35 clk:53 12.6
90 clk:31 clk:95 4.2
91 clk:11 clk:69 4.2
92 clk:16 clk:83 12.6
93 clk:88 clk:96 12.6
94 clk:96 clk:97 0.005
95 clk:62 clk:97 4.2
96 clk:83 clk:98 8.4
97 clk:98 clk:99 0.005
98 clk:99 clk:33 4.2
99 clk:66 clk:100 0.005
100 clk:100 clk:101 0.005
101 clk:101 clk:102 0.003
102 clk:102 clk:103 0.003
103 clk:103 clk:104 0.0063
104 _858_:CK clk:53 1.465
105 _859_:CK clk:2 2.225
106 _860_:CK clk:56 2.585
107 _861_:CK clk:4 2.345
108 _862_:CK clk:5 2.125
109 _863_:CK clk:69 1.285
110 _864_:CK clk:95 3.225
111 _865_:CK clk:14 1.505
112 _866_:CK clk:3 2.525
113 _867_:CK clk:20 2.905
114 _868_:CK clk:84 2.245
115 _869_:CK clk:40 1.445
116 _870_:CK clk:71 1.845
117 _871_:CK clk:75 0.725
118 _872_:CK clk:16 1.445
119 _873_:CK clk:23 4.305
120 _874_:CK clk:46 0.905
121 _875_:CK clk:26 3.005
122 _876_:CK clk:28 1.725
123 _877_:CK clk:22 2.265
124 _878_:CK clk:59 2.765
125 _879_:CK clk:63 1.185
126 _880_:CK clk:12 2.845
127 _881_:CK clk:15 0.785
128 _882_:CK clk:88 0.985
129 _883_:CK clk:32 1.425
130 _884_:CK clk:89 1.505
131 _885_:CK clk:39 1.085
132 _886_:CK clk:70 2.245
133 _887_:CK clk:94 1.505
134 _888_:CK clk:42 2.645
135 _889_:CK clk:43 3.005
136 _890_:CK clk:49 1.285
137 _891_:CK clk:80 1.545
138 _892_:CK clk:50 1.665
139 clk clk:104 0.0019275
*END

*D_NET req_msg[31] 17.8664
*CONN
*P req_msg[31] I
*I buffer1:A I *D BUF_X4
*CAP
1 req_msg[31]:1 2.4825
2 req_msg[31]:2 2.1
3 req_msg[31]:3 5.25
4 req_msg[31]:4 5.25
5 req_msg[31]:5 1.05
6 req_msg[31]:6 1.05
7 req_msg[31]:7 0
8 req_msg[31]:8 0
9 req_msg[31]:9 0
10 req_msg[31]:10 0.103175
11 req_msg[31]:11 0.150709
*RES
1 req_msg[31]:1 req_msg[31]:2 8.4
2 req_msg[31]:2 req_msg[31]:3 0.005
3 req_msg[31]:3 req_msg[31]:4 21
4 req_msg[31]:4 req_msg[31]:5 0.005
5 req_msg[31]:5 req_msg[31]:6 4.2
6 req_msg[31]:6 req_msg[31]:7 0.005
7 req_msg[31]:7 req_msg[31]:8 0.005
8 req_msg[31]:8 req_msg[31]:9 0.003
9 req_msg[31]:9 req_msg[31]:10 0.003
10 req_msg[31]:10 req_msg[31]:11 0.0063
11 buffer1:A req_msg[31]:1 1.535
12 req_msg[31] req_msg[31]:11 0.0029025
*END

*D_NET req_msg[30] 7.15073
*CONN
*P req_msg[30] I
*I buffer2:A I *D BUF_X4
*CAP
1 req_msg[30]:1 3.4475
2 req_msg[30]:2 3.15
3 req_msg[30]:3 0
4 req_msg[30]:4 0
5 req_msg[30]:5 0
6 req_msg[30]:6 0.103175
7 req_msg[30]:7 0.127864
*RES
1 req_msg[30]:1 req_msg[30]:2 12.6
2 req_msg[30]:2 req_msg[30]:3 0.005
3 req_msg[30]:3 req_msg[30]:4 0.005
4 req_msg[30]:4 req_msg[30]:5 0.003
5 req_msg[30]:5 req_msg[30]:6 0.003
6 req_msg[30]:6 req_msg[30]:7 0.0063
7 buffer2:A req_msg[30]:1 1.195
8 req_msg[30] req_msg[30]:7 0.0015075
*END

*D_NET req_msg[29] 7.77142
*CONN
*P req_msg[29] I
*I buffer3:A I *D BUF_X4
*CAP
1 req_msg[29]:1 3.15
2 req_msg[29]:2 3.735
3 req_msg[29]:3 0
4 req_msg[29]:4 0
5 req_msg[29]:5 0
6 req_msg[29]:6 0.150709
7 req_msg[29]:7 0.103175
*RES
1 req_msg[29]:1 req_msg[29]:2 12.6
2 req_msg[29]:1 req_msg[29]:3 0.005
3 req_msg[29]:3 req_msg[29]:4 0.005
4 req_msg[29]:4 req_msg[29]:5 0.003
5 req_msg[29]:5 req_msg[29]:5 0.003
6 req_msg[29]:6 req_msg[29]:7 0.0063
7 buffer3:A req_msg[29]:2 2.345
8 req_msg[29] req_msg[29]:6 0.0029025
*END

*D_NET req_msg[28] 8.26106
*CONN
*P req_msg[28] I
*I buffer4:A I *D BUF_X4
*CAP
1 req_msg[28]:1 2.1
2 req_msg[28]:2 2.1
3 req_msg[28]:3 1.05
4 req_msg[28]:4 2.01
5 req_msg[28]:5 0
6 req_msg[28]:6 0.0205325
7 req_msg[28]:7 0.0139994
*RES
1 req_msg[28]:1 req_msg[28]:2 8.4
2 req_msg[28]:2 req_msg[28]:3 0.005
3 req_msg[28]:3 req_msg[28]:4 4.2
4 req_msg[28]:1 req_msg[28]:5 0.005
5 req_msg[28]:5 req_msg[28]:5 0.003
6 req_msg[28]:6 req_msg[28]:7 0.0063
7 buffer4:A req_msg[28]:4 3.845
8 req_msg[28] req_msg[28]:6 0.00294
*END

*D_NET req_msg[27] 7.19515
*CONN
*P req_msg[27] I
*I buffer5:A I *D BUF_X4
*CAP
1 req_msg[27]:1 3.4675
2 req_msg[27]:2 3.15
3 req_msg[27]:3 0
4 req_msg[27]:4 0
5 req_msg[27]:5 0
6 req_msg[27]:6 0.103175
7 req_msg[27]:7 0.130074
*RES
1 req_msg[27]:1 req_msg[27]:2 12.6
2 req_msg[27]:2 req_msg[27]:3 0.005
3 req_msg[27]:3 req_msg[27]:4 0.005
4 req_msg[27]:4 req_msg[27]:5 0.003
5 req_msg[27]:5 req_msg[27]:6 0.003
6 req_msg[27]:6 req_msg[27]:7 0.0063
7 buffer5:A req_msg[27]:1 1.275
8 req_msg[27] req_msg[27]:7 0.0016425
*END

*D_NET req_msg[26] 7.69454
*CONN
*P req_msg[26] I
*I buffer6:A I *D BUF_X4
*CAP
1 req_msg[26]:1 3.15
2 req_msg[26]:2 3.7
3 req_msg[26]:3 0
4 req_msg[26]:4 0
5 req_msg[26]:5 0
6 req_msg[26]:6 0.14727
7 req_msg[26]:7 0.103175
*RES
1 req_msg[26]:1 req_msg[26]:2 12.6
2 req_msg[26]:1 req_msg[26]:3 0.005
3 req_msg[26]:3 req_msg[26]:4 0.005
4 req_msg[26]:4 req_msg[26]:5 0.003
5 req_msg[26]:5 req_msg[26]:5 0.003
6 req_msg[26]:6 req_msg[26]:7 0.0063
7 buffer6:A req_msg[26]:2 2.205
8 req_msg[26] req_msg[26]:6 0.0026925
*END

*D_NET req_msg[25] 7.44891
*CONN
*P req_msg[25] I
*I buffer7:A I *D BUF_X4
*CAP
1 req_msg[25]:1 3.5875
2 req_msg[25]:2 3.15
3 req_msg[25]:3 0
4 req_msg[25]:4 0
5 req_msg[25]:5 0
6 req_msg[25]:6 0.103175
7 req_msg[25]:7 0.136953
*RES
1 req_msg[25]:1 req_msg[25]:2 12.6
2 req_msg[25]:2 req_msg[25]:3 0.005
3 req_msg[25]:3 req_msg[25]:4 0.005
4 req_msg[25]:4 req_msg[25]:5 0.003
5 req_msg[25]:5 req_msg[25]:6 0.003
6 req_msg[25]:6 req_msg[25]:7 0.0063
7 buffer7:A req_msg[25]:1 1.755
8 req_msg[25] req_msg[25]:7 0.0020625
*END

*D_NET req_msg[24] 9.99967
*CONN
*P req_msg[24] I
*I buffer8:A I *D BUF_X4
*CAP
1 req_msg[24]:1 1.825
2 req_msg[24]:2 1.05
3 req_msg[24]:3 3.15
4 req_msg[24]:4 3.15
5 req_msg[24]:5 0
6 req_msg[24]:6 0.0139994
7 req_msg[24]:7 0.0248323
*RES
1 req_msg[24]:2 req_msg[24]:1 4.2
2 req_msg[24]:2 req_msg[24]:3 0.005
3 req_msg[24]:3 req_msg[24]:4 12.6
4 req_msg[24]:4 req_msg[24]:5 0.005
5 req_msg[24]:5 req_msg[24]:6 0.003
6 req_msg[24]:6 req_msg[24]:7 0.0063
7 buffer8:A req_msg[24]:1 3.105
8 req_msg[24] req_msg[24]:7 0.004875
*END

*D_NET req_msg[23] 7.71579
*CONN
*P req_msg[23] I
*I buffer9:A I *D BUF_X4
*CAP
1 req_msg[23]:1 3.7175
2 req_msg[23]:2 3.15
3 req_msg[23]:3 0
4 req_msg[23]:4 0
5 req_msg[23]:5 0
6 req_msg[23]:6 0.103175
7 req_msg[23]:7 0.140392
*RES
1 req_msg[23]:1 req_msg[23]:2 12.6
2 req_msg[23]:2 req_msg[23]:3 0.005
3 req_msg[23]:3 req_msg[23]:4 0.005
4 req_msg[23]:4 req_msg[23]:5 0.003
5 req_msg[23]:5 req_msg[23]:6 0.003
6 req_msg[23]:6 req_msg[23]:7 0.0063
7 buffer9:A req_msg[23]:1 2.275
8 req_msg[23] req_msg[23]:7 0.0022725
*END

*D_NET req_msg[22] 17.3287
*CONN
*P req_msg[22] I
*I buffer10:A I *D BUF_X4
*CAP
1 req_msg[22]:1 4.2
2 req_msg[22]:2 4.44
3 req_msg[22]:3 4.2
4 req_msg[22]:4 4.2
5 req_msg[22]:5 0
6 req_msg[22]:6 0.0139994
7 req_msg[22]:7 0.0243656
*RES
1 req_msg[22]:1 req_msg[22]:2 16.8
2 req_msg[22]:1 req_msg[22]:3 0.005
3 req_msg[22]:3 req_msg[22]:4 16.8
4 req_msg[22]:4 req_msg[22]:5 0.005
5 req_msg[22]:5 req_msg[22]:6 0.003
6 req_msg[22]:6 req_msg[22]:7 0.0063
7 buffer10:A req_msg[22]:2 0.965
8 req_msg[22] req_msg[22]:7 0.004665
*END

*D_NET req_msg[21] 7.37373
*CONN
*P req_msg[21] I
*I buffer11:A I *D BUF_X4
*CAP
1 req_msg[21]:1 0.5125
2 req_msg[21]:2 3.15
3 req_msg[21]:3 3.15
4 req_msg[21]:4 0
5 req_msg[21]:5 0.0139994
6 req_msg[21]:6 0.0243656
*RES
1 req_msg[21]:1 req_msg[21]:2 0.005
2 req_msg[21]:2 req_msg[21]:3 12.6
3 req_msg[21]:3 req_msg[21]:4 0.005
4 req_msg[21]:4 req_msg[21]:5 0.003
5 req_msg[21]:5 req_msg[21]:6 0.0063
6 buffer11:A req_msg[21]:1 2.055
7 req_msg[21] req_msg[21]:6 0.004665
*END

*D_NET req_msg[20] 9.54387
*CONN
*P req_msg[20] I
*I buffer12:A I *D BUF_X4
*CAP
1 req_msg[20]:1 1.05
2 req_msg[20]:2 1.05
3 req_msg[20]:3 1.05
4 req_msg[20]:4 1.05
5 req_msg[20]:5 2.1
6 req_msg[20]:6 2.52
7 req_msg[20]:7 0
8 req_msg[20]:8 0
9 req_msg[20]:9 0
10 req_msg[20]:10 0.151938
11 req_msg[20]:11 0.103175
*RES
1 req_msg[20]:1 req_msg[20]:2 4.2
2 req_msg[20]:2 req_msg[20]:3 0.005
3 req_msg[20]:3 req_msg[20]:4 4.2
4 req_msg[20]:4 req_msg[20]:5 0.005
5 req_msg[20]:5 req_msg[20]:6 8.4
6 req_msg[20]:1 req_msg[20]:7 0.005
7 req_msg[20]:7 req_msg[20]:8 0.005
8 req_msg[20]:8 req_msg[20]:9 0.003
9 req_msg[20]:9 req_msg[20]:9 0.003
10 req_msg[20]:10 req_msg[20]:11 0.0063
11 buffer12:A req_msg[20]:6 1.685
12 req_msg[20] req_msg[20]:10 0.0029775
*END

*D_NET req_msg[19] 7.46203
*CONN
*P req_msg[19] I
*I buffer13:A I *D BUF_X4
*CAP
1 req_msg[19]:1 3.5975
2 req_msg[19]:2 3.15
3 req_msg[19]:3 0
4 req_msg[19]:4 0
5 req_msg[19]:5 0
6 req_msg[19]:6 0.103175
7 req_msg[19]:7 0.133514
*RES
1 req_msg[19]:1 req_msg[19]:2 12.6
2 req_msg[19]:2 req_msg[19]:3 0.005
3 req_msg[19]:3 req_msg[19]:4 0.005
4 req_msg[19]:4 req_msg[19]:5 0.003
5 req_msg[19]:5 req_msg[19]:6 0.003
6 req_msg[19]:6 req_msg[19]:7 0.0063
7 buffer13:A req_msg[19]:1 1.795
8 req_msg[19] req_msg[19]:7 0.0018525
*END

*D_NET req_msg[18] 7.67136
*CONN
*P req_msg[18] I
*I buffer14:A I *D BUF_X4
*CAP
1 req_msg[18]:1 3.6975
2 req_msg[18]:2 3.15
3 req_msg[18]:3 0
4 req_msg[18]:4 0
5 req_msg[18]:5 0
6 req_msg[18]:6 0.103175
7 req_msg[18]:7 0.138181
*RES
1 req_msg[18]:1 req_msg[18]:2 12.6
2 req_msg[18]:2 req_msg[18]:3 0.005
3 req_msg[18]:3 req_msg[18]:4 0.005
4 req_msg[18]:4 req_msg[18]:5 0.003
5 req_msg[18]:5 req_msg[18]:6 0.003
6 req_msg[18]:6 req_msg[18]:7 0.0063
7 buffer14:A req_msg[18]:1 2.195
8 req_msg[18] req_msg[18]:7 0.0021375
*END

*D_NET req_msg[17] 7.01906
*CONN
*P req_msg[17] I
*I buffer15:A I *D BUF_X4
*CAP
1 req_msg[17]:1 0.3375
2 req_msg[17]:2 3.15
3 req_msg[17]:3 3.15
4 req_msg[17]:4 0
5 req_msg[17]:5 0.0139994
6 req_msg[17]:6 0.0220324
*RES
1 req_msg[17]:1 req_msg[17]:2 0.005
2 req_msg[17]:2 req_msg[17]:3 12.6
3 req_msg[17]:3 req_msg[17]:4 0.005
4 req_msg[17]:4 req_msg[17]:5 0.003
5 req_msg[17]:5 req_msg[17]:6 0.0063
6 buffer15:A req_msg[17]:1 1.355
7 req_msg[17] req_msg[17]:6 0.003615
*END

*D_NET req_msg[16] 7.90954
*CONN
*P req_msg[16] I
*I buffer16:A I *D BUF_X4
*CAP
1 req_msg[16]:1 3.8075
2 req_msg[16]:2 3.15
3 req_msg[16]:3 0
4 req_msg[16]:4 0
5 req_msg[16]:5 0
6 req_msg[16]:6 0.103175
7 req_msg[16]:7 0.14727
*RES
1 req_msg[16]:1 req_msg[16]:2 12.6
2 req_msg[16]:2 req_msg[16]:3 0.005
3 req_msg[16]:3 req_msg[16]:4 0.005
4 req_msg[16]:4 req_msg[16]:5 0.003
5 req_msg[16]:5 req_msg[16]:6 0.003
6 req_msg[16]:6 req_msg[16]:7 0.0063
7 buffer16:A req_msg[16]:1 2.635
8 req_msg[16] req_msg[16]:7 0.0026925
*END

*D_NET req_msg[15] 18.4476
*CONN
*P req_msg[15] I
*I buffer17:A I *D BUF_X4
*CAP
1 req_msg[15]:1 3.15
2 req_msg[15]:2 3.15
3 req_msg[15]:3 5.25
4 req_msg[15]:4 5.25
5 req_msg[15]:5 0.6925
6 req_msg[15]:6 0
7 req_msg[15]:7 0
8 req_msg[15]:8 0
9 req_msg[15]:9 0.103175
10 req_msg[15]:10 0.131303
*RES
1 req_msg[15]:1 req_msg[15]:2 12.6
2 req_msg[15]:1 req_msg[15]:3 0.005
3 req_msg[15]:3 req_msg[15]:4 21
4 req_msg[15]:4 req_msg[15]:5 0.005
5 req_msg[15]:2 req_msg[15]:6 0.005
6 req_msg[15]:6 req_msg[15]:7 0.005
7 req_msg[15]:7 req_msg[15]:8 0.003
8 req_msg[15]:8 req_msg[15]:9 0.003
9 req_msg[15]:9 req_msg[15]:10 0.0063
10 buffer17:A req_msg[15]:5 2.775
11 req_msg[15] req_msg[15]:10 0.0017175
*END

*D_NET req_msg[14] 7.05703
*CONN
*P req_msg[14] I
*I buffer18:A I *D BUF_X4
*CAP
1 req_msg[14]:1 3.15
2 req_msg[14]:2 3.395
3 req_msg[14]:3 0
4 req_msg[14]:4 0
5 req_msg[14]:5 0
6 req_msg[14]:6 0.133514
7 req_msg[14]:7 0.103175
*RES
1 req_msg[14]:1 req_msg[14]:2 12.6
2 req_msg[14]:1 req_msg[14]:3 0.005
3 req_msg[14]:3 req_msg[14]:4 0.005
4 req_msg[14]:4 req_msg[14]:5 0.003
5 req_msg[14]:5 req_msg[14]:5 0.003
6 req_msg[14]:6 req_msg[14]:7 0.0063
7 buffer18:A req_msg[14]:2 0.985
8 req_msg[14] req_msg[14]:6 0.0018525
*END

*D_NET req_msg[13] 7.51766
*CONN
*P req_msg[13] I
*I buffer19:A I *D BUF_X4
*CAP
1 req_msg[13]:1 3.15
2 req_msg[13]:2 3.615
3 req_msg[13]:3 0
4 req_msg[13]:4 0
5 req_msg[13]:5 0
6 req_msg[13]:6 0.143831
7 req_msg[13]:7 0.103175
*RES
1 req_msg[13]:1 req_msg[13]:2 12.6
2 req_msg[13]:1 req_msg[13]:3 0.005
3 req_msg[13]:3 req_msg[13]:4 0.005
4 req_msg[13]:4 req_msg[13]:5 0.003
5 req_msg[13]:5 req_msg[13]:5 0.003
6 req_msg[13]:6 req_msg[13]:7 0.0063
7 buffer19:A req_msg[13]:2 1.865
8 req_msg[13] req_msg[13]:6 0.0024825
*END

*D_NET req_msg[12] 7.7228
*CONN
*P req_msg[12] I
*I buffer20:A I *D BUF_X4
*CAP
1 req_msg[12]:1 0.6875
2 req_msg[12]:2 3.15
3 req_msg[12]:3 3.15
4 req_msg[12]:4 0
5 req_msg[12]:5 0.0139994
6 req_msg[12]:6 0.023899
*RES
1 req_msg[12]:1 req_msg[12]:2 0.005
2 req_msg[12]:2 req_msg[12]:3 12.6
3 req_msg[12]:3 req_msg[12]:4 0.005
4 req_msg[12]:4 req_msg[12]:5 0.003
5 req_msg[12]:5 req_msg[12]:6 0.0063
6 buffer20:A req_msg[12]:1 2.755
7 req_msg[12] req_msg[12]:6 0.004455
*END

*D_NET req_msg[11] 7.61012
*CONN
*P req_msg[11] I
*I buffer21:A I *D BUF_X4
*CAP
1 req_msg[11]:1 3.15
2 req_msg[11]:2 3.66
3 req_msg[11]:3 0
4 req_msg[11]:4 0
5 req_msg[11]:5 0
6 req_msg[11]:6 0.145059
7 req_msg[11]:7 0.103175
*RES
1 req_msg[11]:1 req_msg[11]:2 12.6
2 req_msg[11]:1 req_msg[11]:3 0.005
3 req_msg[11]:3 req_msg[11]:4 0.005
4 req_msg[11]:4 req_msg[11]:5 0.003
5 req_msg[11]:5 req_msg[11]:5 0.003
6 req_msg[11]:6 req_msg[11]:7 0.0063
7 buffer21:A req_msg[11]:2 2.045
8 req_msg[11] req_msg[11]:6 0.0025575
*END

*D_NET req_msg[10] 7.92512
*CONN
*P req_msg[10] I
*I buffer22:A I *D BUF_X4
*CAP
1 req_msg[10]:1 3.8175
2 req_msg[10]:2 3.15
3 req_msg[10]:3 0
4 req_msg[10]:4 0
5 req_msg[10]:5 0
6 req_msg[10]:6 0.103175
7 req_msg[10]:7 0.145059
*RES
1 req_msg[10]:1 req_msg[10]:2 12.6
2 req_msg[10]:2 req_msg[10]:3 0.005
3 req_msg[10]:3 req_msg[10]:4 0.005
4 req_msg[10]:4 req_msg[10]:5 0.003
5 req_msg[10]:5 req_msg[10]:6 0.003
6 req_msg[10]:6 req_msg[10]:7 0.0063
7 buffer22:A req_msg[10]:1 2.675
8 req_msg[10] req_msg[10]:7 0.0025575
*END

*D_NET req_msg[9] 5.4564
*CONN
*P req_msg[9] I
*I buffer23:A I *D BUF_X4
*CAP
1 req_msg[9]:1 2.1
2 req_msg[9]:2 2.1
3 req_msg[9]:3 0.61
4 req_msg[9]:4 0
5 req_msg[9]:5 0.0181992
6 req_msg[9]:6 0.0139994
*RES
1 req_msg[9]:1 req_msg[9]:2 8.4
2 req_msg[9]:2 req_msg[9]:3 0.005
3 req_msg[9]:1 req_msg[9]:4 0.005
4 req_msg[9]:4 req_msg[9]:4 0.003
5 req_msg[9]:5 req_msg[9]:6 0.0063
6 buffer23:A req_msg[9]:3 2.445
7 req_msg[9] req_msg[9]:5 0.00189
*END

*D_NET req_msg[8] 11.8095
*CONN
*P req_msg[8] I
*I buffer24:A I *D BUF_X4
*CAP
1 req_msg[8]:1 3.15
2 req_msg[8]:2 3.15
3 req_msg[8]:3 2.1
4 req_msg[8]:4 2.1
5 req_msg[8]:5 0.5075
6 req_msg[8]:6 0
7 req_msg[8]:7 0
8 req_msg[8]:8 0
9 req_msg[8]:9 0.103175
10 req_msg[8]:10 0.14727
*RES
1 req_msg[8]:1 req_msg[8]:2 12.6
2 req_msg[8]:1 req_msg[8]:3 0.005
3 req_msg[8]:3 req_msg[8]:4 8.4
4 req_msg[8]:4 req_msg[8]:5 0.005
5 req_msg[8]:2 req_msg[8]:6 0.005
6 req_msg[8]:6 req_msg[8]:7 0.005
7 req_msg[8]:7 req_msg[8]:8 0.003
8 req_msg[8]:8 req_msg[8]:9 0.003
9 req_msg[8]:9 req_msg[8]:10 0.0063
10 buffer24:A req_msg[8]:5 2.035
11 req_msg[8] req_msg[8]:10 0.0026925
*END

*D_NET req_msg[7] 7.19593
*CONN
*P req_msg[7] I
*I buffer25:A I *D BUF_X4
*CAP
1 req_msg[7]:1 0.425
2 req_msg[7]:2 3.15
3 req_msg[7]:3 3.15
4 req_msg[7]:4 0
5 req_msg[7]:5 0.0139994
6 req_msg[7]:6 0.0229657
*RES
1 req_msg[7]:1 req_msg[7]:2 0.005
2 req_msg[7]:2 req_msg[7]:3 12.6
3 req_msg[7]:3 req_msg[7]:4 0.005
4 req_msg[7]:4 req_msg[7]:5 0.003
5 req_msg[7]:5 req_msg[7]:6 0.0063
6 buffer25:A req_msg[7]:1 1.705
7 req_msg[7] req_msg[7]:6 0.004035
*END

*D_NET req_msg[6] 5.63513
*CONN
*P req_msg[6] I
*I buffer26:A I *D BUF_X4
*CAP
1 req_msg[6]:1 2.1
2 req_msg[6]:2 2.1
3 req_msg[6]:3 0.6975
4 req_msg[6]:4 0
5 req_msg[6]:5 0.0200658
6 req_msg[6]:6 0.0139994
*RES
1 req_msg[6]:1 req_msg[6]:2 8.4
2 req_msg[6]:2 req_msg[6]:3 0.005
3 req_msg[6]:1 req_msg[6]:4 0.005
4 req_msg[6]:4 req_msg[6]:4 0.003
5 req_msg[6]:5 req_msg[6]:6 0.0063
6 buffer26:A req_msg[6]:3 2.795
7 req_msg[6] req_msg[6]:5 0.00273
*END

*D_NET req_msg[5] 14.417
*CONN
*P req_msg[5] I
*I buffer27:A I *D BUF_X4
*CAP
1 req_msg[5]:1 4.2
2 req_msg[5]:2 4.975
3 req_msg[5]:3 1.05
4 req_msg[5]:4 1.05
5 req_msg[5]:5 1.05
6 req_msg[5]:6 1.05
7 req_msg[5]:7 0
8 req_msg[5]:8 0
9 req_msg[5]:9 0
10 req_msg[5]:10 0.133514
11 req_msg[5]:11 0.103175
*RES
1 req_msg[5]:1 req_msg[5]:2 16.8
2 req_msg[5]:1 req_msg[5]:3 0.005
3 req_msg[5]:3 req_msg[5]:4 4.2
4 req_msg[5]:4 req_msg[5]:5 0.005
5 req_msg[5]:6 req_msg[5]:5 4.2
6 req_msg[5]:6 req_msg[5]:7 0.005
7 req_msg[5]:7 req_msg[5]:8 0.005
8 req_msg[5]:8 req_msg[5]:9 0.003
9 req_msg[5]:9 req_msg[5]:9 0.003
10 req_msg[5]:10 req_msg[5]:11 0.0063
11 buffer27:A req_msg[5]:2 3.105
12 req_msg[5] req_msg[5]:10 0.0018525
*END

*D_NET req_msg[4] 9.99593
*CONN
*P req_msg[4] I
*I buffer28:A I *D BUF_X4
*CAP
1 req_msg[4]:1 1.825
2 req_msg[4]:2 1.05
3 req_msg[4]:3 3.15
4 req_msg[4]:4 3.15
5 req_msg[4]:5 0
6 req_msg[4]:6 0.0139994
7 req_msg[4]:7 0.0229657
*RES
1 req_msg[4]:2 req_msg[4]:1 4.2
2 req_msg[4]:2 req_msg[4]:3 0.005
3 req_msg[4]:3 req_msg[4]:4 12.6
4 req_msg[4]:4 req_msg[4]:5 0.005
5 req_msg[4]:5 req_msg[4]:6 0.003
6 req_msg[4]:6 req_msg[4]:7 0.0063
7 buffer28:A req_msg[4]:1 3.105
8 req_msg[4] req_msg[4]:7 0.004035
*END

*D_NET req_msg[3] 7.5564
*CONN
*P req_msg[3] I
*I buffer29:A I *D BUF_X4
*CAP
1 req_msg[3]:1 1.05
2 req_msg[3]:2 1.05
3 req_msg[3]:3 2.1
4 req_msg[3]:4 2.1
5 req_msg[3]:5 0.61
6 req_msg[3]:6 0
7 req_msg[3]:7 0
8 req_msg[3]:8 0.0181992
9 req_msg[3]:9 0.0139994
*RES
1 req_msg[3]:1 req_msg[3]:2 4.2
2 req_msg[3]:1 req_msg[3]:3 0.005
3 req_msg[3]:3 req_msg[3]:4 8.4
4 req_msg[3]:4 req_msg[3]:5 0.005
5 req_msg[3]:2 req_msg[3]:6 0.005
6 req_msg[3]:6 req_msg[3]:7 0.005
7 req_msg[3]:7 req_msg[3]:7 0.003
8 req_msg[3]:8 req_msg[3]:9 0.0063
9 buffer29:A req_msg[3]:5 2.445
10 req_msg[3] req_msg[3]:8 0.00189
*END

*D_NET req_msg[2] 18.5207
*CONN
*P req_msg[2] I
*I buffer30:A I *D BUF_X4
*CAP
1 req_msg[2]:1 2.8325
2 req_msg[2]:2 2.1
3 req_msg[2]:3 5.25
4 req_msg[2]:4 5.25
5 req_msg[2]:5 1.05
6 req_msg[2]:6 1.05
7 req_msg[2]:7 0
8 req_msg[2]:8 0
9 req_msg[2]:9 0
10 req_msg[2]:10 0.103175
11 req_msg[2]:11 0.127864
*RES
1 req_msg[2]:1 req_msg[2]:2 8.4
2 req_msg[2]:2 req_msg[2]:3 0.005
3 req_msg[2]:3 req_msg[2]:4 21
4 req_msg[2]:4 req_msg[2]:5 0.005
5 req_msg[2]:5 req_msg[2]:6 4.2
6 req_msg[2]:6 req_msg[2]:7 0.005
7 req_msg[2]:7 req_msg[2]:8 0.005
8 req_msg[2]:8 req_msg[2]:9 0.003
9 req_msg[2]:9 req_msg[2]:10 0.003
10 req_msg[2]:10 req_msg[2]:11 0.0063
11 buffer30:A req_msg[2]:1 2.935
12 req_msg[2] req_msg[2]:11 0.0015075
*END

*D_NET req_msg[1] 7.27948
*CONN
*P req_msg[1] I
*I buffer31:A I *D BUF_X4
*CAP
1 req_msg[1]:1 3.15
2 req_msg[1]:2 3.505
3 req_msg[1]:3 0
4 req_msg[1]:4 0
5 req_msg[1]:5 0
6 req_msg[1]:6 0.134742
7 req_msg[1]:7 0.103175
*RES
1 req_msg[1]:1 req_msg[1]:2 12.6
2 req_msg[1]:1 req_msg[1]:3 0.005
3 req_msg[1]:3 req_msg[1]:4 0.005
4 req_msg[1]:4 req_msg[1]:5 0.003
5 req_msg[1]:5 req_msg[1]:5 0.003
6 req_msg[1]:6 req_msg[1]:7 0.0063
7 buffer31:A req_msg[1]:2 1.425
8 req_msg[1] req_msg[1]:6 0.0019275
*END

*D_NET req_msg[0] 7.195
*CONN
*P req_msg[0] I
*I buffer32:A I *D BUF_X4
*CAP
1 req_msg[0]:1 0.425
2 req_msg[0]:2 3.15
3 req_msg[0]:3 3.15
4 req_msg[0]:4 0
5 req_msg[0]:5 0.0139994
6 req_msg[0]:6 0.022499
*RES
1 req_msg[0]:1 req_msg[0]:2 0.005
2 req_msg[0]:2 req_msg[0]:3 12.6
3 req_msg[0]:3 req_msg[0]:4 0.005
4 req_msg[0]:4 req_msg[0]:5 0.003
5 req_msg[0]:5 req_msg[0]:6 0.0063
6 buffer32:A req_msg[0]:1 1.705
7 req_msg[0] req_msg[0]:6 0.003825
*END

*D_NET req_rdy 17.9833
*CONN
*P req_rdy O
*I buffer36:Z O *D BUF_X4
*CAP
1 req_rdy:1 3.15
2 req_rdy:2 3.15
3 req_rdy:3 5.25
4 req_rdy:4 5.25
5 req_rdy:5 0.4375
6 req_rdy:6 0
7 req_rdy:7 0
8 req_rdy:8 0
9 req_rdy:9 0.154149
10 req_rdy:10 0.103175
*RES
1 req_rdy:1 req_rdy:2 12.6
2 req_rdy:2 req_rdy:3 0.005
3 req_rdy:3 req_rdy:4 21
4 req_rdy:4 req_rdy:5 0.005
5 req_rdy:1 req_rdy:6 0.005
6 req_rdy:6 req_rdy:7 0.005
7 req_rdy:7 req_rdy:8 0.003
8 req_rdy:8 req_rdy:8 0.003
9 req_rdy:9 req_rdy:10 0.0063
10 buffer36:Z req_rdy:5 1.755
11 req_rdy req_rdy:9 0.0031125
*END

*D_NET req_val 13.3019
*CONN
*P req_val I
*I buffer33:A I *D BUF_X4
*CAP
1 req_val:1 2.4275
2 req_val:2 2.1
3 req_val:3 4.2
4 req_val:4 4.2
5 req_val:5 0
6 req_val:6 0.0139994
7 req_val:7 0.0234323
*RES
1 req_val:1 req_val:2 8.4
2 req_val:2 req_val:3 0.005
3 req_val:3 req_val:4 16.8
4 req_val:4 req_val:5 0.005
5 req_val:5 req_val:6 0.003
6 req_val:6 req_val:7 0.0063
7 buffer33:A req_val:1 1.315
8 req_val req_val:7 0.004245
*END

*D_NET reset 5.9842
*CONN
*P reset I
*I buffer34:A I *D BUF_X4
*CAP
1 reset:1 2.1
2 reset:2 2.1
3 reset:3 0.8725
4 reset:4 0
5 reset:5 0.0195992
6 reset:6 0.0139994
*RES
1 reset:1 reset:2 8.4
2 reset:2 reset:3 0.005
3 reset:1 reset:4 0.005
4 reset:4 reset:4 0.003
5 reset:5 reset:6 0.0063
6 buffer34:A reset:3 3.495
7 reset reset:5 0.00252
*END

*D_NET resp_msg[15] 14.4351
*CONN
*P resp_msg[15] O
*I buffer37:Z O *D BUF_X4
*CAP
1 resp_msg[15]:1 3.15
2 resp_msg[15]:2 3.15
3 resp_msg[15]:3 2.1
4 resp_msg[15]:4 2.1
5 resp_msg[15]:5 1.05
6 resp_msg[15]:6 1.8375
7 resp_msg[15]:7 0
8 resp_msg[15]:8 0
9 resp_msg[15]:9 0
10 resp_msg[15]:10 0.130074
11 resp_msg[15]:11 0.103175
*RES
1 resp_msg[15]:1 resp_msg[15]:2 12.6
2 resp_msg[15]:2 resp_msg[15]:3 0.005
3 resp_msg[15]:3 resp_msg[15]:4 8.4
4 resp_msg[15]:4 resp_msg[15]:5 0.005
5 resp_msg[15]:5 resp_msg[15]:6 4.2
6 resp_msg[15]:1 resp_msg[15]:7 0.005
7 resp_msg[15]:7 resp_msg[15]:8 0.005
8 resp_msg[15]:8 resp_msg[15]:9 0.003
9 resp_msg[15]:9 resp_msg[15]:9 0.003
10 resp_msg[15]:10 resp_msg[15]:11 0.0063
11 buffer37:Z resp_msg[15]:6 3.155
12 resp_msg[15] resp_msg[15]:10 0.0016425
*END

*D_NET resp_msg[14] 9.82824
*CONN
*P resp_msg[14] O
*I buffer38:Z O *D BUF_X4
*CAP
1 resp_msg[14]:1 1.05
2 resp_msg[14]:2 1.05
3 resp_msg[14]:3 1.05
4 resp_msg[14]:4 1.05
5 resp_msg[14]:5 2.1
6 resp_msg[14]:6 2.6725
7 resp_msg[14]:7 0
8 resp_msg[14]:8 0
9 resp_msg[14]:9 0
10 resp_msg[14]:10 0.14162
11 resp_msg[14]:11 0.103175
*RES
1 resp_msg[14]:1 resp_msg[14]:2 4.2
2 resp_msg[14]:2 resp_msg[14]:3 0.005
3 resp_msg[14]:3 resp_msg[14]:4 4.2
4 resp_msg[14]:4 resp_msg[14]:5 0.005
5 resp_msg[14]:5 resp_msg[14]:6 8.4
6 resp_msg[14]:1 resp_msg[14]:7 0.005
7 resp_msg[14]:7 resp_msg[14]:8 0.005
8 resp_msg[14]:8 resp_msg[14]:9 0.003
9 resp_msg[14]:9 resp_msg[14]:9 0.003
10 resp_msg[14]:10 resp_msg[14]:11 0.0063
11 buffer38:Z resp_msg[14]:6 2.295
12 resp_msg[14] resp_msg[14]:10 0.0023475
*END

*D_NET resp_msg[13] 5.49093
*CONN
*P resp_msg[13] O
*I buffer39:Z O *D BUF_X4
*CAP
1 resp_msg[13]:1 0.6225
2 resp_msg[13]:2 2.1
3 resp_msg[13]:3 2.1
4 resp_msg[13]:4 0
5 resp_msg[13]:5 0.0139994
6 resp_msg[13]:6 0.0229657
*RES
1 resp_msg[13]:1 resp_msg[13]:2 0.005
2 resp_msg[13]:2 resp_msg[13]:3 8.4
3 resp_msg[13]:3 resp_msg[13]:4 0.005
4 resp_msg[13]:4 resp_msg[13]:5 0.003
5 resp_msg[13]:5 resp_msg[13]:6 0.0063
6 buffer39:Z resp_msg[13]:1 2.495
7 resp_msg[13] resp_msg[13]:6 0.004035
*END

*D_NET resp_msg[12] 16.942
*CONN
*P resp_msg[12] O
*I buffer40:Z O *D BUF_X4
*CAP
1 resp_msg[12]:1 3.15
2 resp_msg[12]:2 4.1225
3 resp_msg[12]:3 3.15
4 resp_msg[12]:4 3.15
5 resp_msg[12]:5 1.05
6 resp_msg[12]:6 1.05
7 resp_msg[12]:7 0
8 resp_msg[12]:8 0
9 resp_msg[12]:9 0
10 resp_msg[12]:10 0.148499
11 resp_msg[12]:11 0.103175
*RES
1 resp_msg[12]:1 resp_msg[12]:2 12.6
2 resp_msg[12]:1 resp_msg[12]:3 0.005
3 resp_msg[12]:3 resp_msg[12]:4 12.6
4 resp_msg[12]:4 resp_msg[12]:5 0.005
5 resp_msg[12]:6 resp_msg[12]:5 4.2
6 resp_msg[12]:6 resp_msg[12]:7 0.005
7 resp_msg[12]:7 resp_msg[12]:8 0.005
8 resp_msg[12]:8 resp_msg[12]:9 0.003
9 resp_msg[12]:9 resp_msg[12]:9 0.003
10 resp_msg[12]:10 resp_msg[12]:11 0.0063
11 buffer40:Z resp_msg[12]:2 3.895
12 resp_msg[12] resp_msg[12]:10 0.0027675
*END

*D_NET resp_msg[11] 6.1956
*CONN
*P resp_msg[11] O
*I buffer41:Z O *D BUF_X4
*CAP
1 resp_msg[11]:1 0.9725
2 resp_msg[11]:2 2.1
3 resp_msg[11]:3 2.1
4 resp_msg[11]:4 0
5 resp_msg[11]:5 0.0139994
6 resp_msg[11]:6 0.0252989
*RES
1 resp_msg[11]:1 resp_msg[11]:2 0.005
2 resp_msg[11]:2 resp_msg[11]:3 8.4
3 resp_msg[11]:3 resp_msg[11]:4 0.005
4 resp_msg[11]:4 resp_msg[11]:5 0.003
5 resp_msg[11]:5 resp_msg[11]:6 0.0063
6 buffer41:Z resp_msg[11]:1 3.895
7 resp_msg[11] resp_msg[11]:6 0.005085
*END

*D_NET resp_msg[10] 7.21606
*CONN
*P resp_msg[10] O
*I buffer42:Z O *D BUF_X4
*CAP
1 resp_msg[10]:1 3.15
2 resp_msg[10]:2 3.15
3 resp_msg[10]:3 0.4375
4 resp_msg[10]:4 0
5 resp_msg[10]:5 0.0205325
6 resp_msg[10]:6 0.0139994
*RES
1 resp_msg[10]:1 resp_msg[10]:2 12.6
2 resp_msg[10]:2 resp_msg[10]:3 0.005
3 resp_msg[10]:1 resp_msg[10]:4 0.005
4 resp_msg[10]:4 resp_msg[10]:4 0.003
5 resp_msg[10]:5 resp_msg[10]:6 0.0063
6 buffer42:Z resp_msg[10]:3 1.755
7 resp_msg[10] resp_msg[10]:5 0.00294
*END

*D_NET resp_msg[9] 6.82578
*CONN
*P resp_msg[9] O
*I buffer43:Z O *D BUF_X4
*CAP
1 resp_msg[9]:1 3.15
2 resp_msg[9]:2 3.2725
3 resp_msg[9]:3 0
4 resp_msg[9]:4 0
5 resp_msg[9]:5 0
6 resp_msg[9]:6 0.140392
7 resp_msg[9]:7 0.103175
*RES
1 resp_msg[9]:1 resp_msg[9]:2 12.6
2 resp_msg[9]:1 resp_msg[9]:3 0.005
3 resp_msg[9]:3 resp_msg[9]:4 0.005
4 resp_msg[9]:4 resp_msg[9]:5 0.003
5 resp_msg[9]:5 resp_msg[9]:5 0.003
6 resp_msg[9]:6 resp_msg[9]:7 0.0063
7 buffer43:Z resp_msg[9]:2 0.495
8 resp_msg[9] resp_msg[9]:6 0.0022725
*END

*D_NET resp_msg[8] 7.91327