*SPEF "ieee 1481-1999"
*DESIGN "gcd"
*DATE "11:11:11 Fri 11 11, 1111"
*VENDOR "The OpenROAD Project"
*PROGRAM "OpenROAD"
*VERSION "1.0"
*DESIGN_FLOW "NAME_SCOPE LOCAL" "PIN_CAP NONE"
*DIVIDER /
*DELIMITER :
*BUS_DELIMITER []
*T_UNIT 1 NS
*C_UNIT 1 PF
*R_UNIT 1 OHM
*L_UNIT 1 HENRY

*PORTS
clk I
req_msg[31] I
req_msg[30] I
req_msg[29] I
req_msg[28] I
req_msg[27] I
req_msg[26] I
req_msg[25] I
req_msg[24] I
req_msg[23] I
req_msg[22] I
req_msg[21] I
req_msg[20] I
req_msg[19] I
req_msg[18] I
req_msg[17] I
req_msg[16] I
req_msg[15] I
req_msg[14] I
req_msg[13] I
req_msg[12] I
req_msg[11] I
req_msg[10] I
req_msg[9] I
req_msg[8] I
req_msg[7] I
req_msg[6] I
req_msg[5] I
req_msg[4] I
req_msg[3] I
req_msg[2] I
req_msg[1] I
req_msg[0] I
req_rdy O
req_val I
reset I
resp_msg[15] O
resp_msg[14] O
resp_msg[13] O
resp_msg[12] O
resp_msg[11] O
resp_msg[10] O
resp_msg[9] O
resp_msg[8] O
resp_msg[7] O
resp_msg[6] O
resp_msg[5] O
resp_msg[4] O
resp_msg[3] O
resp_msg[2] O
resp_msg[1] O
resp_msg[0] O
resp_rdy I
resp_val O

*D_NET clk 6.60869e-13
*CONN
*P clk I
*I _858_/CK I *D DFF_X1
*I _859_/CK I *D DFF_X1
*I _860_/CK I *D DFF_X1
*I _861_/CK I *D DFF_X1
*I _862_/CK I *D DFF_X1
*I _863_/CK I *D DFF_X1
*I _864_/CK I *D DFF_X1
*I _865_/CK I *D DFF_X1
*I _866_/CK I *D DFF_X1
*I _867_/CK I *D DFF_X1
*I _868_/CK I *D DFF_X1
*I _869_/CK I *D DFF_X1
*I _870_/CK I *D DFF_X1
*I _871_/CK I *D DFF_X1
*I _872_/CK I *D DFF_X1
*I _873_/CK I *D DFF_X1
*I _874_/CK I *D DFF_X1
*I _875_/CK I *D DFF_X1
*I _876_/CK I *D DFF_X1
*I _877_/CK I *D DFF_X1
*I _878_/CK I *D DFF_X1
*I _879_/CK I *D DFF_X1
*I _880_/CK I *D DFF_X1
*I _881_/CK I *D DFF_X1
*I _882_/CK I *D DFF_X1
*I _883_/CK I *D DFF_X1
*I _884_/CK I *D DFF_X1
*I _885_/CK I *D DFF_X1
*I _886_/CK I *D DFF_X1
*I _887_/CK I *D DFF_X1
*I _888_/CK I *D DFF_X1
*I _889_/CK I *D DFF_X1
*I _890_/CK I *D DFF_X1
*I _891_/CK I *D DFF_X1
*I _892_/CK I *D DFF_X1
*CAP
1 clk:1 6.3e-15
2 clk:2 3.21e-15
3 clk:3 7.56e-15
4 clk:4 7.47e-15
5 clk:5 1.06e-15
6 clk:6 2.1e-15
7 clk:7 8.4e-15
8 clk:8 4.2e-15
9 clk:9 6.3e-15
10 clk:10 6.3e-15
11 clk:11 8.4e-15
12 clk:12 5.62e-15
13 clk:13 4.2e-15
14 clk:14 4.95e-15
15 clk:15 4.59e-15
16 clk:16 1.332e-14
17 clk:17 6.3e-15
18 clk:18 6.3e-15
19 clk:19 2.1e-15
20 clk:20 3.55e-15
21 clk:21 6.3e-15
22 clk:22 5.33e-15
23 clk:23 4.25e-15
24 clk:24 2.1e-15
25 clk:25 2.1e-15
26 clk:26 3.6e-15
27 clk:27 1.05e-14
28 clk:28 7.16e-15
29 clk:29 1.26e-14
30 clk:30 4.2e-15
31 clk:31 1.26e-14
32 clk:32 7.1e-16
33 clk:33 1.47e-14
34 clk:34 1.47e-14
35 clk:35 1.68e-14
36 clk:36 6.3e-15
37 clk:37 4.2e-15
38 clk:38 2.1e-15
39 clk:39 2.64e-15
40 clk:40 4.92e-15
41 clk:41 2.1e-15
42 clk:42 5.52e-15
43 clk:43 1.5e-15
44 clk:44 2.1e-15
45 clk:45 4.2e-15
46 clk:46 4.5e-16
47 clk:47 1.26e-14
48 clk:48 6.3e-15
49 clk:49 6.4e-16
50 clk:50 8.3e-16
51 clk:51 2.1e-15
52 clk:52 8.4e-15
53 clk:53 1.123e-14
54 clk:54 1.05e-14
55 clk:55 1.68e-14
56 clk:56 1.29e-15
57 clk:57 6.3e-15
58 clk:58 4.2e-15
59 clk:59 9.78e-15
60 clk:60 4.2e-15
61 clk:61 8.4e-15
62 clk:62 1.05e-14
63 clk:63 5.9e-16
64 clk:64 1.05e-14
65 clk:65 2.1e-14
66 clk:66 2.1e-14
67 clk:67 4.2e-15
68 clk:68 4.2e-15
69 clk:69 2.74e-15
70 clk:70 5.32e-15
71 clk:71 1.562e-14
72 clk:72 4.2e-15
73 clk:73 2.1e-15
74 clk:74 8.4e-15
75 clk:75 3.6e-16
76 clk:76 2.1e-15
77 clk:77 6.3e-15
78 clk:78 8.4e-15
79 clk:79 1.05e-14
80 clk:80 1.547e-14
81 clk:81 2.1e-15
82 clk:82 6.3e-15
83 clk:83 1.05e-14
84 clk:84 1.162e-14
85 clk:85 2.1e-15
86 clk:86 2.1e-15
87 clk:87 1.05e-14
88 clk:88 1.729e-14
89 clk:89 2.85e-15
90 clk:90 2.1e-15
91 clk:91 2.1e-15
92 clk:92 6.3e-15
93 clk:93 2.1e-15
94 clk:94 7.05e-15
95 clk:95 3.71e-15
96 clk:96 6.3e-15
97 clk:97 2.1e-15
98 clk:98 4.2e-15
99 clk:99 2.1e-15
100 clk:100 0
101 clk:101 0
102 clk:102 0
103 clk:103 1.03175e-16
104 clk:104 1.34742e-16
*RES
1 clk:1 clk:2 8400
2 clk:3 clk:4 25200
3 clk:5 clk:6 5
4 clk:6 clk:7 8400
5 clk:7 clk:8 5
6 clk:7 clk:9 25200
7 clk:9 clk:10 5
8 clk:10 clk:11 25200
9 clk:12 clk:13 16800
10 clk:14 clk:15 16800
11 clk:16 clk:17 5
12 clk:17 clk:18 25200
13 clk:18 clk:19 5
14 clk:19 clk:20 8400
15 clk:21 clk:22 16800
16 clk:23 clk:24 8400
17 clk:25 clk:26 8400
18 clk:27 clk:28 25200
19 clk:13 clk:29 5
20 clk:29 clk:30 16800
21 clk:30 clk:31 5
22 clk:32 clk:33 5
23 clk:33 clk:34 50400
24 clk:34 clk:15 5
25 clk:35 clk:36 5
26 clk:36 clk:37 16800
27 clk:37 clk:38 5
28 clk:38 clk:39 8400
29 clk:40 clk:41 5
30 clk:41 clk:36 8400
31 clk:42 clk:27 16800
32 clk:43 clk:44 5
33 clk:44 clk:45 8400
34 clk:45 clk:24 5
35 clk:46 clk:47 5
36 clk:47 clk:48 25200
37 clk:48 clk:49 5
38 clk:50 clk:51 5
39 clk:51 clk:52 8400
40 clk:52 clk:27 5
41 clk:53 clk:1 16800
42 clk:1 clk:54 5
43 clk:54 clk:55 42000
44 clk:55 clk:56 5
45 clk:55 clk:57 25200
46 clk:57 clk:58 5
47 clk:58 clk:59 16800
48 clk:60 clk:61 5
49 clk:61 clk:62 33600
50 clk:62 clk:3 5
51 clk:63 clk:64 5
52 clk:64 clk:29 33600
53 clk:65 clk:66 84000
54 clk:65 clk:67 5
55 clk:67 clk:68 16800
56 clk:68 clk:69 5
57 clk:60 clk:21 8400
58 clk:70 clk:40 16800
59 clk:71 clk:35 42000
60 clk:72 clk:71 16800
61 clk:72 clk:73 5
62 clk:73 clk:74 8400
63 clk:74 clk:75 5
64 clk:45 clk:76 8400
65 clk:76 clk:77 5
66 clk:77 clk:16 25200
67 clk:25 clk:78 5
68 clk:78 clk:47 25200
69 clk:79 clk:80 42000
70 clk:79 clk:81 5
71 clk:81 clk:78 8400
72 clk:52 clk:82 25200
73 clk:82 clk:83 5
74 clk:84 clk:31 42000
75 clk:59 clk:8 16800
76 clk:11 clk:85 5
77 clk:85 clk:64 8400
78 clk:34 clk:86 8400
79 clk:86 clk:87 5
80 clk:87 clk:88 42000
81 clk:89 clk:60 8400
82 clk:84 clk:90 5
83 clk:90 clk:91 8400
84 clk:91 clk:21 5
85 clk:74 clk:92 25200
86 clk:92 clk:93 5
87 clk:94 clk:93 8400
88 clk:80 clk:94 16800
89 clk:35 clk:53 25200
90 clk:31 clk:95 8400
91 clk:11 clk:69 8400
92 clk:16 clk:83 25200
93 clk:88 clk:96 25200
94 clk:96 clk:97 5
95 clk:62 clk:97 8400
96 clk:83 clk:98 16800
97 clk:98 clk:99 5
98 clk:99 clk:33 8400
99 clk:66 clk:100 5
100 clk:100 clk:101 5
101 clk:101 clk:102 3
102 clk:102 clk:103 3
103 clk:103 clk:104 6.3
104 _858_/CK clk:53 2925
105 _859_/CK clk:2 4445
106 _860_/CK clk:56 5165
107 _861_/CK clk:4 4685
108 _862_/CK clk:5 4245
109 _863_/CK clk:69 2565
110 _864_/CK clk:95 6445
111 _865_/CK clk:14 3005
112 _866_/CK clk:3 5045
113 _867_/CK clk:20 5805
114 _868_/CK clk:84 4485
115 _869_/CK clk:40 2885
116 _870_/CK clk:71 3685
117 _871_/CK clk:75 1445
118 _872_/CK clk:16 2885
119 _873_/CK clk:23 8605
120 _874_/CK clk:46 1805
121 _875_/CK clk:26 6005
122 _876_/CK clk:28 3445
123 _877_/CK clk:22 4525
124 _878_/CK clk:59 5525
125 _879_/CK clk:63 2365
126 _880_/CK clk:12 5685
127 _881_/CK clk:15 1565
128 _882_/CK clk:88 1965
129 _883_/CK clk:32 2845
130 _884_/CK clk:89 3005
131 _885_/CK clk:39 2165
132 _886_/CK clk:70 4485
133 _887_/CK clk:94 3005
134 _888_/CK clk:42 5285
135 _889_/CK clk:43 6005
136 _890_/CK clk:49 2565
137 _891_/CK clk:80 3085
138 _892_/CK clk:50 3325
139 clk clk:104 1.9275
*END

*D_NET req_msg[31] 3.54314e-14
*CONN
*P req_msg[31] I
*I buffer1/A I *D BUF_X4
*CAP
1 req_msg[31]:1 4.965e-15
2 req_msg[31]:2 4.2e-15
3 req_msg[31]:3 1.05e-14
4 req_msg[31]:4 1.05e-14
5 req_msg[31]:5 2.1e-15
6 req_msg[31]:6 2.1e-15
7 req_msg[31]:7 0
8 req_msg[31]:8 0
9 req_msg[31]:9 0
10 req_msg[31]:10 1.03175e-16
11 req_msg[31]:11 1.50709e-16
*RES
1 req_msg[31]:1 req_msg[31]:2 16800
2 req_msg[31]:2 req_msg[31]:3 5
3 req_msg[31]:3 req_msg[31]:4 42000
4 req_msg[31]:4 req_msg[31]:5 5
5 req_msg[31]:5 req_msg[31]:6 8400
6 req_msg[31]:6 req_msg[31]:7 5
7 req_msg[31]:7 req_msg[31]:8 5
8 req_msg[31]:8 req_msg[31]:9 3
9 req_msg[31]:9 req_msg[31]:10 3
10 req_msg[31]:10 req_msg[31]:11 6.3
11 buffer1/A req_msg[31]:1 3065
12 req_msg[31] req_msg[31]:11 2.9025
*END

*D_NET req_msg[30] 1.40457e-14
*CONN
*P req_msg[30] I
*I buffer2/A I *D BUF_X4
*CAP
1 req_msg[30]:1 6.895e-15
2 req_msg[30]:2 6.3e-15
3 req_msg[30]:3 0
4 req_msg[30]:4 0
5 req_msg[30]:5 0
6 req_msg[30]:6 1.03175e-16
7 req_msg[30]:7 1.27864e-16
*RES
1 req_msg[30]:1 req_msg[30]:2 25200
2 req_msg[30]:2 req_msg[30]:3 5
3 req_msg[30]:3 req_msg[30]:4 5
4 req_msg[30]:4 req_msg[30]:5 3
5 req_msg[30]:5 req_msg[30]:6 3
6 req_msg[30]:6 req_msg[30]:7 6.3
7 buffer2/A req_msg[30]:1 2385
8 req_msg[30] req_msg[30]:7 1.5075
*END

*D_NET req_msg[29] 1.52414e-14
*CONN
*P req_msg[29] I
*I buffer3/A I *D BUF_X4
*CAP
1 req_msg[29]:1 6.3e-15
2 req_msg[29]:2 7.47e-15
3 req_msg[29]:3 0
4 req_msg[29]:4 0
5 req_msg[29]:5 0
6 req_msg[29]:6 1.50709e-16
7 req_msg[29]:7 1.03175e-16
*RES
1 req_msg[29]:1 req_msg[29]:2 25200
2 req_msg[29]:1 req_msg[29]:3 5
3 req_msg[29]:3 req_msg[29]:4 5
4 req_msg[29]:4 req_msg[29]:5 3
5 req_msg[29]:5 req_msg[29]:5 3
6 req_msg[29]:6 req_msg[29]:7 6.3
7 buffer3/A req_msg[29]:2 4685
8 req_msg[29] req_msg[29]:6 2.9025
*END

*D_NET req_msg[28] 1.64811e-14
*CONN
*P req_msg[28] I
*I buffer4/A I *D BUF_X4
*CAP
1 req_msg[28]:1 4.2e-15
2 req_msg[28]:2 4.2e-15
3 req_msg[28]:3 2.1e-15
4 req_msg[28]:4 4.02e-15
5 req_msg[28]:5 0
6 req_msg[28]:6 2.05325e-17
7 req_msg[28]:7 1.39994e-17
*RES
1 req_msg[28]:1 req_msg[28]:2 16800
2 req_msg[28]:2 req_msg[28]:3 5
3 req_msg[28]:3 req_msg[28]:4 8400
4 req_msg[28]:1 req_msg[28]:5 5
5 req_msg[28]:5 req_msg[28]:5 3
6 req_msg[28]:6 req_msg[28]:7 6.3
7 buffer4/A req_msg[28]:4 7685
8 req_msg[28] req_msg[28]:6 2.94
*END

*D_NET req_msg[27] 1.41301e-14
*CONN
*P req_msg[27] I
*I buffer5/A I *D BUF_X4
*CAP
1 req_msg[27]:1 6.935e-15
2 req_msg[27]:2 6.3e-15
3 req_msg[27]:3 0
4 req_msg[27]:4 0
5 req_msg[27]:5 0
6 req_msg[27]:6 1.03175e-16
7 req_msg[27]:7 1.30074e-16
*RES
1 req_msg[27]:1 req_msg[27]:2 25200
2 req_msg[27]:2 req_msg[27]:3 5
3 req_msg[27]:3 req_msg[27]:4 5
4 req_msg[27]:4 req_msg[27]:5 3
5 req_msg[27]:5 req_msg[27]:6 3
6 req_msg[27]:6 req_msg[27]:7 6.3
7 buffer5/A req_msg[27]:1 2545
8 req_msg[27] req_msg[27]:7 1.6425
*END

*D_NET req_msg[26] 1.50945e-14
*CONN
*P req_msg[26] I
*I buffer6/A I *D BUF_X4
*CAP
1 req_msg[26]:1 6.3e-15
2 req_msg[26]:2 7.4e-15
3 req_msg[26]:3 0
4 req_msg[26]:4 0
5 req_msg[26]:5 0
6 req_msg[26]:6 1.4727e-16
7 req_msg[26]:7 1.03175e-16
*RES
1 req_msg[26]:1 req_msg[26]:2 25200
2 req_msg[26]:1 req_msg[26]:3 5
3 req_msg[26]:3 req_msg[26]:4 5
4 req_msg[26]:4 req_msg[26]:5 3
5 req_msg[26]:5 req_msg[26]:5 3
6 req_msg[26]:6 req_msg[26]:7 6.3
7 buffer6/A req_msg[26]:2 4405
8 req_msg[26] req_msg[26]:6 2.6925
*END

*D_NET req_msg[25] 1.46239e-14
*CONN
*P req_msg[25] I
*I buffer7/A I *D BUF_X4
*CAP
1 req_msg[25]:1 7.175e-15
2 req_msg[25]:2 6.3e-15
3 req_msg[25]:3 0
4 req_msg[25]:4 0
5 req_msg[25]:5 0
6 req_msg[25]:6 1.03175e-16
7 req_msg[25]:7 1.36953e-16
*RES
1 req_msg[25]:1 req_msg[25]:2 25200
2 req_msg[25]:2 req_msg[25]:3 5
3 req_msg[25]:3 req_msg[25]:4 5
4 req_msg[25]:4 req_msg[25]:5 3
5 req_msg[25]:5 req_msg[25]:6 3
6 req_msg[25]:6 req_msg[25]:7 6.3
7 buffer7/A req_msg[25]:1 3505
8 req_msg[25] req_msg[25]:7 2.0625
*END

*D_NET req_msg[24] 1.99497e-14
*CONN
*P req_msg[24] I
*I buffer8/A I *D BUF_X4
*CAP
1 req_msg[24]:1 3.65e-15
2 req_msg[24]:2 2.1e-15
3 req_msg[24]:3 6.3e-15
4 req_msg[24]:4 6.3e-15
5 req_msg[24]:5 0
6 req_msg[24]:6 1.39994e-17
7 req_msg[24]:7 2.48323e-17
*RES
1 req_msg[24]:2 req_msg[24]:1 8400
2 req_msg[24]:2 req_msg[24]:3 5
3 req_msg[24]:3 req_msg[24]:4 25200
4 req_msg[24]:4 req_msg[24]:5 5
5 req_msg[24]:5 req_msg[24]:6 3
6 req_msg[24]:6 req_msg[24]:7 6.3
7 buffer8/A req_msg[24]:1 6205
8 req_msg[24] req_msg[24]:7 4.875
*END

*D_NET req_msg[23] 1.51508e-14
*CONN
*P req_msg[23] I
*I buffer9/A I *D BUF_X4
*CAP
1 req_msg[23]:1 7.435e-15
2 req_msg[23]:2 6.3e-15
3 req_msg[23]:3 0
4 req_msg[23]:4 0
5 req_msg[23]:5 0
6 req_msg[23]:6 1.03175e-16
7 req_msg[23]:7 1.40392e-16
*RES
1 req_msg[23]:1 req_msg[23]:2 25200
2 req_msg[23]:2 req_msg[23]:3 5
3 req_msg[23]:3 req_msg[23]:4 5
4 req_msg[23]:4 req_msg[23]:5 3
5 req_msg[23]:5 req_msg[23]:6 3
6 req_msg[23]:6 req_msg[23]:7 6.3
7 buffer9/A req_msg[23]:1 4545
8 req_msg[23] req_msg[23]:7 2.2725
*END

*D_NET req_msg[22] 3.46087e-14
*CONN
*P req_msg[22] I
*I buffer10/A I *D BUF_X4
*CAP
1 req_msg[22]:1 8.4e-15
2 req_msg[22]:2 8.88e-15
3 req_msg[22]:3 8.4e-15
4 req_msg[22]:4 8.4e-15
5 req_msg[22]:5 0
6 req_msg[22]:6 1.39994e-17
7 req_msg[22]:7 2.43656e-17
*RES
1 req_msg[22]:1 req_msg[22]:2 33600
2 req_msg[22]:1 req_msg[22]:3 5
3 req_msg[22]:3 req_msg[22]:4 33600
4 req_msg[22]:4 req_msg[22]:5 5
5 req_msg[22]:5 req_msg[22]:6 3
6 req_msg[22]:6 req_msg[22]:7 6.3
7 buffer10/A req_msg[22]:2 1925
8 req_msg[22] req_msg[22]:7 4.665
*END

*D_NET req_msg[21] 1.46987e-14
*CONN
*P req_msg[21] I
*I buffer11/A I *D BUF_X4
*CAP
1 req_msg[21]:1 1.025e-15
2 req_msg[21]:2 6.3e-15
3 req_msg[21]:3 6.3e-15
4 req_msg[21]:4 0
5 req_msg[21]:5 1.39994e-17
6 req_msg[21]:6 2.43656e-17
*RES
1 req_msg[21]:1 req_msg[21]:2 5
2 req_msg[21]:2 req_msg[21]:3 25200
3 req_msg[21]:3 req_msg[21]:4 5
4 req_msg[21]:4 req_msg[21]:5 3
5 req_msg[21]:5 req_msg[21]:6 6.3
6 buffer11/A req_msg[21]:1 4105
7 req_msg[21] req_msg[21]:6 4.665
*END

*D_NET req_msg[20] 1.87839e-14
*CONN
*P req_msg[20] I
*I buffer12/A I *D BUF_X4
*CAP
1 req_msg[20]:1 2.1e-15
2 req_msg[20]:2 2.1e-15
3 req_msg[20]:3 2.1e-15
4 req_msg[20]:4 2.1e-15
5 req_msg[20]:5 4.2e-15
6 req_msg[20]:6 5.04e-15
7 req_msg[20]:7 0
8 req_msg[20]:8 0
9 req_msg[20]:9 0
10 req_msg[20]:10 1.51938e-16
11 req_msg[20]:11 1.03175e-16
*RES
1 req_msg[20]:1 req_msg[20]:2 8400
2 req_msg[20]:2 req_msg[20]:3 5
3 req_msg[20]:3 req_msg[20]:4 8400
4 req_msg[20]:4 req_msg[20]:5 5
5 req_msg[20]:5 req_msg[20]:6 16800
6 req_msg[20]:1 req_msg[20]:7 5
7 req_msg[20]:7 req_msg[20]:8 5
8 req_msg[20]:8 req_msg[20]:9 3
9 req_msg[20]:9 req_msg[20]:9 3
10 req_msg[20]:10 req_msg[20]:11 6.3
11 buffer12/A req_msg[20]:6 3365
12 req_msg[20] req_msg[20]:10 2.9775
*END

*D_NET req_msg[19] 1.4657e-14
*CONN
*P req_msg[19] I
*I buffer13/A I *D BUF_X4
*CAP
1 req_msg[19]:1 7.195e-15
2 req_msg[19]:2 6.3e-15
3 req_msg[19]:3 0
4 req_msg[19]:4 0
5 req_msg[19]:5 0
6 req_msg[19]:6 1.03175e-16
7 req_msg[19]:7 1.33514e-16
*RES
1 req_msg[19]:1 req_msg[19]:2 25200
2 req_msg[19]:2 req_msg[19]:3 5
3 req_msg[19]:3 req_msg[19]:4 5
4 req_msg[19]:4 req_msg[19]:5 3
5 req_msg[19]:5 req_msg[19]:6 3
6 req_msg[19]:6 req_msg[19]:7 6.3
7 buffer13/A req_msg[19]:1 3585
8 req_msg[19] req_msg[19]:7 1.8525
*END

*D_NET req_msg[18] 1.50664e-14
*CONN
*P req_msg[18] I
*I buffer14/A I *D BUF_X4
*CAP
1 req_msg[18]:1 7.395e-15
2 req_msg[18]:2 6.3e-15
3 req_msg[18]:3 0
4 req_msg[18]:4 0
5 req_msg[18]:5 0
6 req_msg[18]:6 1.03175e-16
7 req_msg[18]:7 1.38181e-16
*RES
1 req_msg[18]:1 req_msg[18]:2 25200
2 req_msg[18]:2 req_msg[18]:3 5
3 req_msg[18]:3 req_msg[18]:4 5
4 req_msg[18]:4 req_msg[18]:5 3
5 req_msg[18]:5 req_msg[18]:6 3
6 req_msg[18]:6 req_msg[18]:7 6.3
7 buffer14/A req_msg[18]:1 4385
8 req_msg[18] req_msg[18]:7 2.1375
*END

*D_NET req_msg[17] 1.39941e-14
*CONN
*P req_msg[17] I
*I buffer15/A I *D BUF_X4
*CAP
1 req_msg[17]:1 6.75e-16
2 req_msg[17]:2 6.3e-15
3 req_msg[17]:3 6.3e-15
4 req_msg[17]:4 0
5 req_msg[17]:5 1.39994e-17
6 req_msg[17]:6 2.20324e-17
*RES
1 req_msg[17]:1 req_msg[17]:2 5
2 req_msg[17]:2 req_msg[17]:3 25200
3 req_msg[17]:3 req_msg[17]:4 5
4 req_msg[17]:4 req_msg[17]:5 3
5 req_msg[17]:5 req_msg[17]:6 6.3
6 buffer15/A req_msg[17]:1 2705
7 req_msg[17] req_msg[17]:6 3.615
*END

*D_NET req_msg[16] 1.55245e-14
*CONN
*P req_msg[16] I
*I buffer16/A I *D BUF_X4
*CAP
1 req_msg[16]:1 7.615e-15
2 req_msg[16]:2 6.3e-15
3 req_msg[16]:3 0
4 req_msg[16]:4 0
5 req_msg[16]:5 0
6 req_msg[16]:6 1.03175e-16
7 req_msg[16]:7 1.4727e-16
*RES
1 req_msg[16]:1 req_msg[16]:2 25200
2 req_msg[16]:2 req_msg[16]:3 5
3 req_msg[16]:3 req_msg[16]:4 5
4 req_msg[16]:4 req_msg[16]:5 3
5 req_msg[16]:5 req_msg[16]:6 3
6 req_msg[16]:6 req_msg[16]:7 6.3
7 buffer16/A req_msg[16]:1 5265
8 req_msg[16] req_msg[16]:7 2.6925
*END

*D_NET req_msg[15] 3.66326e-14
*CONN
*P req_msg[15] I
*I buffer17/A I *D BUF_X4
*CAP
1 req_msg[15]:1 6.3e-15
2 req_msg[15]:2 6.3e-15
3 req_msg[15]:3 1.05e-14
4 req_msg[15]:4 1.05e-14
5 req_msg[15]:5 1.385e-15
6 req_msg[15]:6 0
7 req_msg[15]:7 0
8 req_msg[15]:8 0
9 req_msg[15]:9 1.03175e-16
10 req_msg[15]:10 1.31303e-16
*RES
1 req_msg[15]:1 req_msg[15]:2 25200
2 req_msg[15]:1 req_msg[15]:3 5
3 req_msg[15]:3 req_msg[15]:4 42000
4 req_msg[15]:4 req_msg[15]:5 5
5 req_msg[15]:2 req_msg[15]:6 5
6 req_msg[15]:6 req_msg[15]:7 5
7 req_msg[15]:7 req_msg[15]:8 3
8 req_msg[15]:8 req_msg[15]:9 3
9 req_msg[15]:9 req_msg[15]:10 6.3
10 buffer17/A req_msg[15]:5 5545
11 req_msg[15] req_msg[15]:10 1.7175
*END

*D_NET req_msg[14] 1.3847e-14
*CONN
*P req_msg[14] I
*I buffer18/A I *D BUF_X4
*CAP
1 req_msg[14]:1 6.3e-15
2 req_msg[14]:2 6.79e-15
3 req_msg[14]:3 0
4 req_msg[14]:4 0
5 req_msg[14]:5 0
6 req_msg[14]:6 1.33514e-16
7 req_msg[14]:7 1.03175e-16
*RES
1 req_msg[14]:1 req_msg[14]:2 25200
2 req_msg[14]:1 req_msg[14]:3 5
3 req_msg[14]:3 req_msg[14]:4 5
4 req_msg[14]:4 req_msg[14]:5 3
5 req_msg[14]:5 req_msg[14]:5 3
6 req_msg[14]:6 req_msg[14]:7 6.3
7 buffer18/A req_msg[14]:2 1965
8 req_msg[14] req_msg[14]:6 1.8525
*END

*D_NET req_msg[13] 1.47477e-14
*CONN
*P req_msg[13] I
*I buffer19/A I *D BUF_X4
*CAP
1 req_msg[13]:1 6.3e-15
2 req_msg[13]:2 7.23e-15
3 req_msg[13]:3 0
4 req_msg[13]:4 0
5 req_msg[13]:5 0
6 req_msg[13]:6 1.43831e-16
7 req_msg[13]:7 1.03175e-16
*RES
1 req_msg[13]:1 req_msg[13]:2 25200
2 req_msg[13]:1 req_msg[13]:3 5
3 req_msg[13]:3 req_msg[13]:4 5
4 req_msg[13]:4 req_msg[13]:5 3
5 req_msg[13]:5 req_msg[13]:5 3
6 req_msg[13]:6 req_msg[13]:7 6.3
7 buffer19/A req_msg[13]:2 3725
8 req_msg[13] req_msg[13]:6 2.4825
*END

*D_NET req_msg[12] 1.53978e-14
*CONN
*P req_msg[12] I
*I buffer20/A I *D BUF_X4
*CAP
1 req_msg[12]:1 1.375e-15
2 req_msg[12]:2 6.3e-15
3 req_msg[12]:3 6.3e-15
4 req_msg[12]:4 0
5 req_msg[12]:5 1.39994e-17
6 req_msg[12]:6 2.3899e-17
*RES
1 req_msg[12]:1 req_msg[12]:2 5
2 req_msg[12]:2 req_msg[12]:3 25200
3 req_msg[12]:3 req_msg[12]:4 5
4 req_msg[12]:4 req_msg[12]:5 3
5 req_msg[12]:5 req_msg[12]:6 6.3
6 buffer20/A req_msg[12]:1 5505
7 req_msg[12] req_msg[12]:6 4.455
*END

*D_NET req_msg[11] 1.49301e-14
*CONN
*P req_msg[11] I
*I buffer21/A I *D BUF_X4
*CAP
1 req_msg[11]:1 6.3e-15
2 req_msg[11]:2 7.32e-15
3 req_msg[11]:3 0
4 req_msg[11]:4 0
5 req_msg[11]:5 0
6 req_msg[11]:6 1.45059e-16
7 req_msg[11]:7 1.03175e-16
*RES
1 req_msg[11]:1 req_msg[11]:2 25200
2 req_msg[11]:1 req_msg[11]:3 5
3 req_msg[11]:3 req_msg[11]:4 5
4 req_msg[11]:4 req_msg[11]:5 3
5 req_msg[11]:5 req_msg[11]:5 3
6 req_msg[11]:6 req_msg[11]:7 6.3
7 buffer21/A req_msg[11]:2 4085
8 req_msg[11] req_msg[11]:6 2.5575
*END

*D_NET req_msg[10] 1.55601e-14
*CONN
*P req_msg[10] I
*I buffer22/A I *D BUF_X4
*CAP
1 req_msg[10]:1 7.635e-15
2 req_msg[10]:2 6.3e-15
3 req_msg[10]:3 0
4 req_msg[10]:4 0
5 req_msg[10]:5 0
6 req_msg[10]:6 1.03175e-16
7 req_msg[10]:7 1.45059e-16
*RES
1 req_msg[10]:1 req_msg[10]:2 25200
2 req_msg[10]:2 req_msg[10]:3 5
3 req_msg[10]:3 req_msg[10]:4 5
4 req_msg[10]:4 req_msg[10]:5 3
5 req_msg[10]:5 req_msg[10]:6 3
6 req_msg[10]:6 req_msg[10]:7 6.3
7 buffer22/A req_msg[10]:1 5345
8 req_msg[10] req_msg[10]:7 2.5575
*END

*D_NET req_msg[9] 1.08764e-14
*CONN
*P req_msg[9] I
*I buffer23/A I *D BUF_X4
*CAP
1 req_msg[9]:1 4.2e-15
2 req_msg[9]:2 4.2e-15
3 req_msg[9]:3 1.22e-15
4 req_msg[9]:4 0
5 req_msg[9]:5 1.81992e-17
6 req_msg[9]:6 1.39994e-17
*RES
1 req_msg[9]:1 req_msg[9]:2 16800
2 req_msg[9]:2 req_msg[9]:3 5
3 req_msg[9]:1 req_msg[9]:4 5
4 req_msg[9]:4 req_msg[9]:4 3
5 req_msg[9]:5 req_msg[9]:6 6.3
6 buffer23/A req_msg[9]:3 4885
7 req_msg[9] req_msg[9]:5 1.89
*END

*D_NET req_msg[8] 2.33245e-14
*CONN
*P req_msg[8] I
*I buffer24/A I *D BUF_X4
*CAP
1 req_msg[8]:1 6.3e-15
2 req_msg[8]:2 6.3e-15
3 req_msg[8]:3 4.2e-15
4 req_msg[8]:4 4.2e-15
5 req_msg[8]:5 1.015e-15
6 req_msg[8]:6 0
7 req_msg[8]:7 0
8 req_msg[8]:8 0
9 req_msg[8]:9 1.03175e-16
10 req_msg[8]:10 1.4727e-16
*RES
1 req_msg[8]:1 req_msg[8]:2 25200
2 req_msg[8]:1 req_msg[8]:3 5
3 req_msg[8]:3 req_msg[8]:4 16800
4 req_msg[8]:4 req_msg[8]:5 5
5 req_msg[8]:2 req_msg[8]:6 5
6 req_msg[8]:6 req_msg[8]:7 5
7 req_msg[8]:7 req_msg[8]:8 3
8 req_msg[8]:8 req_msg[8]:9 3
9 req_msg[8]:9 req_msg[8]:10 6.3
10 buffer24/A req_msg[8]:5 4065
11 req_msg[8] req_msg[8]:10 2.6925
*END

*D_NET req_msg[7] 1.43459e-14
*CONN
*P req_msg[7] I
*I buffer25/A I *D BUF_X4
*CAP
1 req_msg[7]:1 8.5e-16
2 req_msg[7]:2 6.3e-15
3 req_msg[7]:3 6.3e-15
4 req_msg[7]:4 0
5 req_msg[7]:5 1.39994e-17
6 req_msg[7]:6 2.29657e-17
*RES
1 req_msg[7]:1 req_msg[7]:2 5
2 req_msg[7]:2 req_msg[7]:3 25200
3 req_msg[7]:3 req_msg[7]:4 5
4 req_msg[7]:4 req_msg[7]:5 3
5 req_msg[7]:5 req_msg[7]:6 6.3
6 buffer25/A req_msg[7]:1 3405
7 req_msg[7] req_msg[7]:6 4.035
*END

*D_NET req_msg[6] 1.12301e-14
*CONN
*P req_msg[6] I
*I buffer26/A I *D BUF_X4
*CAP
1 req_msg[6]:1 4.2e-15
2 req_msg[6]:2 4.2e-15
3 req_msg[6]:3 1.395e-15
4 req_msg[6]:4 0
5 req_msg[6]:5 2.00658e-17
6 req_msg[6]:6 1.39994e-17
*RES
1 req_msg[6]:1 req_msg[6]:2 16800
2 req_msg[6]:2 req_msg[6]:3 5
3 req_msg[6]:1 req_msg[6]:4 5
4 req_msg[6]:4 req_msg[6]:4 3
5 req_msg[6]:5 req_msg[6]:6 6.3
6 buffer26/A req_msg[6]:3 5585
7 req_msg[6] req_msg[6]:5 2.73
*END

*D_NET req_msg[5] 2.8567e-14
*CONN
*P req_msg[5] I
*I buffer27/A I *D BUF_X4
*CAP
1 req_msg[5]:1 8.4e-15
2 req_msg[5]:2 9.95e-15
3 req_msg[5]:3 2.1e-15
4 req_msg[5]:4 2.1e-15
5 req_msg[5]:5 2.1e-15
6 req_msg[5]:6 2.1e-15
7 req_msg[5]:7 0
8 req_msg[5]:8 0
9 req_msg[5]:9 0
10 req_msg[5]:10 1.33514e-16
11 req_msg[5]:11 1.03175e-16
*RES
1 req_msg[5]:1 req_msg[5]:2 33600
2 req_msg[5]:1 req_msg[5]:3 5
3 req_msg[5]:3 req_msg[5]:4 8400
4 req_msg[5]:4 req_msg[5]:5 5
5 req_msg[5]:6 req_msg[5]:5 8400
6 req_msg[5]:6 req_msg[5]:7 5
7 req_msg[5]:7 req_msg[5]:8 5
8 req_msg[5]:8 req_msg[5]:9 3
9 req_msg[5]:9 req_msg[5]:9 3
10 req_msg[5]:10 req_msg[5]:11 6.3
11 buffer27/A req_msg[5]:2 6205
12 req_msg[5] req_msg[5]:10 1.8525
*END

*D_NET req_msg[4] 1.99459e-14
*CONN
*P req_msg[4] I
*I buffer28/A I *D BUF_X4
*CAP
1 req_msg[4]:1 3.65e-15
2 req_msg[4]:2 2.1e-15
3 req_msg[4]:3 6.3e-15
4 req_msg[4]:4 6.3e-15
5 req_msg[4]:5 0
6 req_msg[4]:6 1.39994e-17
7 req_msg[4]:7 2.29657e-17
*RES
1 req_msg[4]:2 req_msg[4]:1 8400
2 req_msg[4]:2 req_msg[4]:3 5
3 req_msg[4]:3 req_msg[4]:4 25200
4 req_msg[4]:4 req_msg[4]:5 5
5 req_msg[4]:5 req_msg[4]:6 3
6 req_msg[4]:6 req_msg[4]:7 6.3
7 buffer28/A req_msg[4]:1 6205
8 req_msg[4] req_msg[4]:7 4.035
*END

*D_NET req_msg[3] 1.50764e-14
*CONN
*P req_msg[3] I
*I buffer29/A I *D BUF_X4
*CAP
1 req_msg[3]:1 2.1e-15
2 req_msg[3]:2 2.1e-15
3 req_msg[3]:3 4.2e-15
4 req_msg[3]:4 4.2e-15
5 req_msg[3]:5 1.22e-15
6 req_msg[3]:6 0
7 req_msg[3]:7 0
8 req_msg[3]:8 1.81992e-17
9 req_msg[3]:9 1.39994e-17
*RES
1 req_msg[3]:1 req_msg[3]:2 8400
2 req_msg[3]:1 req_msg[3]:3 5
3 req_msg[3]:3 req_msg[3]:4 16800
4 req_msg[3]:4 req_msg[3]:5 5
5 req_msg[3]:2 req_msg[3]:6 5
6 req_msg[3]:6 req_msg[3]:7 5
7 req_msg[3]:7 req_msg[3]:7 3
8 req_msg[3]:8 req_msg[3]:9 6.3
9 buffer29/A req_msg[3]:5 4885
10 req_msg[3] req_msg[3]:8 1.89
*END

*D_NET req_msg[2] 3.67857e-14
*CONN
*P req_msg[2] I
*I buffer30/A I *D BUF_X4
*CAP
1 req_msg[2]:1 5.665e-15
2 req_msg[2]:2 4.2e-15
3 req_msg[2]:3 1.05e-14
4 req_msg[2]:4 1.05e-14
5 req_msg[2]:5 2.1e-15
6 req_msg[2]:6 2.1e-15
7 req_msg[2]:7 0
8 req_msg[2]:8 0
9 req_msg[2]:9 0
10 req_msg[2]:10 1.03175e-16
11 req_msg[2]:11 1.27864e-16
*RES
1 req_msg[2]:1 req_msg[2]:2 16800
2 req_msg[2]:2 req_msg[2]:3 5
3 req_msg[2]:3 req_msg[2]:4 42000
4 req_msg[2]:4 req_msg[2]:5 5
5 req_msg[2]:5 req_msg[2]:6 8400
6 req_msg[2]:6 req_msg[2]:7 5
7 req_msg[2]:7 req_msg[2]:8 5
8 req_msg[2]:8 req_msg[2]:9 3
9 req_msg[2]:9 req_msg[2]:10 3
10 req_msg[2]:10 req_msg[2]:11 6.3
11 buffer30/A req_msg[2]:1 5865
12 req_msg[2] req_msg[2]:11 1.5075
*END

*D_NET req_msg[1] 1.42895e-14
*CONN
*P req_msg[1] I
*I buffer31/A I *D BUF_X4
*CAP
1 req_msg[1]:1 6.3e-15
2 req_msg[1]:2 7.01e-15
3 req_msg[1]:3 0
4 req_msg[1]:4 0
5 req_msg[1]:5 0
6 req_msg[1]:6 1.34742e-16
7 req_msg[1]:7 1.03175e-16
*RES
1 req_msg[1]:1 req_msg[1]:2 25200
2 req_msg[1]:1 req_msg[1]:3 5
3 req_msg[1]:3 req_msg[1]:4 5
4 req_msg[1]:4 req_msg[1]:5 3
5 req_msg[1]:5 req_msg[1]:5 3
6 req_msg[1]:6 req_msg[1]:7 6.3
7 buffer31/A req_msg[1]:2 2845
8 req_msg[1] req_msg[1]:6 1.9275
*END

*D_NET req_msg[0] 1.4345e-14
*CONN
*P req_msg[0] I
*I buffer32/A I *D BUF_X4
*CAP
1 req_msg[0]:1 8.5e-16
2 req_msg[0]:2 6.3e-15
3 req_msg[0]:3 6.3e-15
4 req_msg[0]:4 0
5 req_msg[0]:5 1.39994e-17
6 req_msg[0]:6 2.2499e-17
*RES
1 req_msg[0]:1 req_msg[0]:2 5
2 req_msg[0]:2 req_msg[0]:3 25200
3 req_msg[0]:3 req_msg[0]:4 5
4 req_msg[0]:4 req_msg[0]:5 3
5 req_msg[0]:5 req_msg[0]:6 6.3
6 buffer32/A req_msg[0]:1 3405
7 req_msg[0] req_msg[0]:6 3.825
*END

*D_NET req_rdy 3.56583e-14
*CONN
*P req_rdy O
*I buffer36/Z O *D BUF_X4
*CAP
1 req_rdy:1 6.3e-15
2 req_rdy:2 6.3e-15
3 req_rdy:3 1.05e-14
4 req_rdy:4 1.05e-14
5 req_rdy:5 8.75e-16
6 req_rdy:6 0
7 req_rdy:7 0
8 req_rdy:8 0
9 req_rdy:9 1.54149e-16
10 req_rdy:10 1.03175e-16
*RES
1 req_rdy:1 req_rdy:2 25200
2 req_rdy:2 req_rdy:3 5
3 req_rdy:3 req_rdy:4 42000
4 req_rdy:4 req_rdy:5 5
5 req_rdy:1 req_rdy:6 5
6 req_rdy:6 req_rdy:7 5
7 req_rdy:7 req_rdy:8 3
8 req_rdy:8 req_rdy:8 3
9 req_rdy:9 req_rdy:10 6.3
10 buffer36/Z req_rdy:5 3505
11 req_rdy req_rdy:9 3.1125
*END

*D_NET req_val 2.65569e-14
*CONN
*P req_val I
*I buffer33/A I *D BUF_X4
*CAP
1 req_val:1 4.855e-15
2 req_val:2 4.2e-15
3 req_val:3 8.4e-15
4 req_val:4 8.4e-15
5 req_val:5 0
6 req_val:6 1.39994e-17
7 req_val:7 2.34323e-17
*RES
1 req_val:1 req_val:2 16800
2 req_val:2 req_val:3 5
3 req_val:3 req_val:4 33600
4 req_val:4 req_val:5 5
5 req_val:5 req_val:6 3
6 req_val:6 req_val:7 6.3
7 buffer33/A req_val:1 2625
8 req_val req_val:7 4.245
*END

*D_NET reset 1.19292e-14
*CONN
*P reset I
*I buffer34/A I *D BUF_X4
*CAP
1 reset:1 4.2e-15
2 reset:2 4.2e-15
3 reset:3 1.745e-15
4 reset:4 0
5 reset:5 1.95992e-17
6 reset:6 1.39994e-17
*RES
1 reset:1 reset:2 16800
2 reset:2 reset:3 5
3 reset:1 reset:4 5
4 reset:4 reset:4 3
5 reset:5 reset:6 6.3
6 buffer34/A reset:3 6985
7 reset reset:5 2.52
*END

*D_NET resp_msg[15] 2.86101e-14
*CONN
*P resp_msg[15] O
*I buffer37/Z O *D BUF_X4
*CAP
1 resp_msg[15]:1 6.3e-15
2 resp_msg[15]:2 6.3e-15
3 resp_msg[15]:3 4.2e-15
4 resp_msg[15]:4 4.2e-15
5 resp_msg[15]:5 2.1e-15
6 resp_msg[15]:6 3.675e-15
7 resp_msg[15]:7 0
8 resp_msg[15]:8 0
9 resp_msg[15]:9 0
10 resp_msg[15]:10 1.30074e-16
11 resp_msg[15]:11 1.03175e-16
*RES
1 resp_msg[15]:1 resp_msg[15]:2 25200
2 resp_msg[15]:2 resp_msg[15]:3 5
3 resp_msg[15]:3 resp_msg[15]:4 16800
4 resp_msg[15]:4 resp_msg[15]:5 5
5 resp_msg[15]:5 resp_msg[15]:6 8400
6 resp_msg[15]:1 resp_msg[15]:7 5
7 resp_msg[15]:7 resp_msg[15]:8 5
8 resp_msg[15]:8 resp_msg[15]:9 3
9 resp_msg[15]:9 resp_msg[15]:9 3
10 resp_msg[15]:10 resp_msg[15]:11 6.3
11 buffer37/Z resp_msg[15]:6 6305
12 resp_msg[15] resp_msg[15]:10 1.6425
*END

*D_NET resp_msg[14] 1.93732e-14
*CONN
*P resp_msg[14] O
*I buffer38/Z O *D BUF_X4
*CAP
1 resp_msg[14]:1 2.1e-15
2 resp_msg[14]:2 2.1e-15
3 resp_msg[14]:3 2.1e-15
4 resp_msg[14]:4 2.1e-15
5 resp_msg[14]:5 4.2e-15
6 resp_msg[14]:6 5.345e-15
7 resp_msg[14]:7 0
8 resp_msg[14]:8 0
9 resp_msg[14]:9 0
10 resp_msg[14]:10 1.4162e-16
11 resp_msg[14]:11 1.03175e-16
*RES
1 resp_msg[14]:1 resp_msg[14]:2 8400
2 resp_msg[14]:2 resp_msg[14]:3 5
3 resp_msg[14]:3 resp_msg[14]:4 8400
4 resp_msg[14]:4 resp_msg[14]:5 5
5 resp_msg[14]:5 resp_msg[14]:6 16800
6 resp_msg[14]:1 resp_msg[14]:7 5
7 resp_msg[14]:7 resp_msg[14]:8 5
8 resp_msg[14]:8 resp_msg[14]:9 3
9 resp_msg[14]:9 resp_msg[14]:9 3
10 resp_msg[14]:10 resp_msg[14]:11 6.3
11 buffer38/Z resp_msg[14]:6 4585
12 resp_msg[14] resp_msg[14]:10 2.3475
*END

*D_NET resp_msg[13] 1.09359e-14
*CONN
*P resp_msg[13] O
*I buffer39/Z O *D BUF_X4
*CAP
1 resp_msg[13]:1 1.245e-15
2 resp_msg[13]:2 4.2e-15
3 resp_msg[13]:3 4.2e-15
4 resp_msg[13]:4 0
5 resp_msg[13]:5 1.39994e-17
6 resp_msg[13]:6 2.29657e-17
*RES
1 resp_msg[13]:1 resp_msg[13]:2 5
2 resp_msg[13]:2 resp_msg[13]:3 16800
3 resp_msg[13]:3 resp_msg[13]:4 5
4 resp_msg[13]:4 resp_msg[13]:5 3
5 resp_msg[13]:5 resp_msg[13]:6 6.3
6 buffer39/Z resp_msg[13]:1 4985
7 resp_msg[13] resp_msg[13]:6 4.035
*END

*D_NET resp_msg[12] 3.3587e-14
*CONN
*P resp_msg[12] O
*I buffer40/Z O *D BUF_X4
*CAP
1 resp_msg[12]:1 6.3e-15
2 resp_msg[12]:2 8.245e-15
3 resp_msg[12]:3 6.3e-15
4 resp_msg[12]:4 6.3e-15
5 resp_msg[12]:5 2.1e-15
6 resp_msg[12]:6 2.1e-15
7 resp_msg[12]:7 0
8 resp_msg[12]:8 0
9 resp_msg[12]:9 0
10 resp_msg[12]:10 1.48499e-16
11 resp_msg[12]:11 1.03175e-16
*RES
1 resp_msg[12]:1 resp_msg[12]:2 25200
2 resp_msg[12]:1 resp_msg[12]:3 5
3 resp_msg[12]:3 resp_msg[12]:4 25200
4 resp_msg[12]:4 resp_msg[12]:5 5
5 resp_msg[12]:6 resp_msg[12]:5 8400
6 resp_msg[12]:6 resp_msg[12]:7 5
7 resp_msg[12]:7 resp_msg[12]:8 5
8 resp_msg[12]:8 resp_msg[12]:9 3
9 resp_msg[12]:9 resp_msg[12]:9 3
10 resp_msg[12]:10 resp_msg[12]:11 6.3
11 buffer40/Z resp_msg[12]:2 7785
12 resp_msg[12] resp_msg[12]:10 2.7675
*END

*D_NET resp_msg[11] 1.23406e-14
*CONN
*P resp_msg[11] O
*I buffer41/Z O *D BUF_X4
*CAP
1 resp_msg[11]:1 1.945e-15
2 resp_msg[11]:2 4.2e-15
3 resp_msg[11]:3 4.2e-15
4 resp_msg[11]:4 0
5 resp_msg[11]:5 1.39994e-17
6 resp_msg[11]:6 2.52989e-17
*RES
1 resp_msg[11]:1 resp_msg[11]:2 5
2 resp_msg[11]:2 resp_msg[11]:3 16800
3 resp_msg[11]:3 resp_msg[11]:4 5
4 resp_msg[11]:4 resp_msg[11]:5 3
5 resp_msg[11]:5 resp_msg[11]:6 6.3
6 buffer41/Z resp_msg[11]:1 7785
7 resp_msg[11] resp_msg[11]:6 5.085
*END

*D_NET resp_msg[10] 1.43911e-14
*CONN
*P resp_msg[10] O
*I buffer42/Z O *D BUF_X4
*CAP
1 resp_msg[10]:1 6.3e-15
2 resp_msg[10]:2 6.3e-15
3 resp_msg[10]:3 8.75e-16
4 resp_msg[10]:4 0
5 resp_msg[10]:5 2.05325e-17
6 resp_msg[10]:6 1.39994e-17
*RES
1 resp_msg[10]:1 resp_msg[10]:2 25200
2 resp_msg[10]:2 resp_msg[10]:3 5
3 resp_msg[10]:1 resp_msg[10]:4 5
4 resp_msg[10]:4 resp_msg[10]:4 3
5 resp_msg[10]:5 resp_msg[10]:6 6.3
6 buffer42/Z resp_msg[10]:3 3505
7 resp_msg[10] resp_msg[10]:5 2.94
*END

*D_NET resp_msg[9] 1.33708e-14
*CONN
*P resp_msg[9] O
*I buffer43/Z O *D BUF_X4
*CAP
1 resp_msg[9]:1 6.3e-15
2 resp_msg[9]:2 6.545e-15
3 resp_msg[9]:3 0
4 resp_msg[9]:4 0
5 resp_msg[9]:5 0
6 resp_msg[9]:6 1.40392e-16
7 resp_msg[9]:7 1.03175e-16
*RES
1 resp_msg[9]:1 resp_msg[9]:2 25200
2 resp_msg[9]:1 resp_msg[9]:3 5
3 resp_msg[9]:3 resp_msg[9]:4 5