*SPEF "ieee 1481-1999"
*DESIGN "gcd"
*DATE "11:11:11 Fri 11 11, 1111"
*VENDOR "The OpenROAD Project"
*PROGRAM "OpenROAD"
*VERSION "1.0"
*DESIGN_FLOW "NAME_SCOPE LOCAL" "PIN_CAP NONE"
*DIVIDER /
*DELIMITER :
*BUS_DELIMITER []
*T_UNIT 1 NS
*C_UNIT 1 FF
*R_UNIT 1 KOHM
*L_UNIT 1 HENRY

*PORTS
clk I
req_msg[31] I
req_msg[30] I
req_msg[29] I
req_msg[28] I
req_msg[27] I
req_msg[26] I
req_msg[25] I
req_msg[24] I
req_msg[23] I
req_msg[22] I
req_msg[21] I
req_msg[20] I
req_msg[19] I
req_msg[18] I
req_msg[17] I
req_msg[16] I
req_msg[15] I
req_msg[14] I
req_msg[13] I
req_msg[12] I
req_msg[11] I
req_msg[10] I
req_msg[9] I
req_msg[8] I
req_msg[7] I
req_msg[6] I
req_msg[5] I
req_msg[4] I
req_msg[3] I
req_msg[2] I
req_msg[1] I
req_msg[0] I
req_rdy O
req_val I
reset I
resp_msg[15] O
resp_msg[14] O
resp_msg[13] O
resp_msg[12] O
resp_msg[11] O
resp_msg[10] O
resp_msg[9] O
resp_msg[8] O
resp_msg[7] O
resp_msg[6] O
resp_msg[5] O
resp_msg[4] O
resp_msg[3] O
resp_msg[2] O
resp_msg[1] O
resp_msg[0] O
resp_rdy I
resp_val O

*D_NET clk 660.869
*CONN
*P clk I
*I _858_:CK I *D DFF_X1
*I _859_:CK I *D DFF_X1
*I _860_:CK I *D DFF_X1
*I _861_:CK I *D DFF_X1
*I _862_:CK I *D DFF_X1
*I _863_:CK I *D DFF_X1
*I _864_:CK I *D DFF_X1
*I _865_:CK I *D DFF_X1
*I _866_:CK I *D DFF_X1
*I _867_:CK I *D DFF_X1
*I _868_:CK I *D DFF_X1
*I _869_:CK I *D DFF_X1
*I _870_:CK I *D DFF_X1
*I _871_:CK I *D DFF_X1
*I _872_:CK I *D DFF_X1
*I _873_:CK I *D DFF_X1
*I _874_:CK I *D DFF_X1
*I _875_:CK I *D DFF_X1
*I _876_:CK I *D DFF_X1
*I _877_:CK I *D DFF_X1
*I _878_:CK I *D DFF_X1
*I _879_:CK I *D DFF_X1
*I _880_:CK I *D DFF_X1
*I _881_:CK I *D DFF_X1
*I _882_:CK I *D DFF_X1
*I _883_:CK I *D DFF_X1
*I _884_:CK I *D DFF_X1
*I _885_:CK I *D DFF_X1
*I _886_:CK I *D DFF_X1
*I _887_:CK I *D DFF_X1
*I _888_:CK I *D DFF_X1
*I _889_:CK I *D DFF_X1
*I _890_:CK I *D DFF_X1
*I _891_:CK I *D DFF_X1
*I _892_:CK I *D DFF_X1
*CAP
1 clk:1 6.3
2 clk:2 3.21
3 clk:3 7.56
4 clk:4 7.47
5 clk:5 1.06
6 clk:6 2.1
7 clk:7 8.4
8 clk:8 4.2
9 clk:9 6.3
10 clk:10 6.3
11 clk:11 8.4
12 clk:12 5.62
13 clk:13 4.2
14 clk:14 4.95
15 clk:15 4.59
16 clk:16 13.32
17 clk:17 6.3
18 clk:18 6.3
19 clk:19 2.1
20 clk:20 3.55
21 clk:21 6.3
22 clk:22 5.33
23 clk:23 4.25
24 clk:24 2.1
25 clk:25 2.1
26 clk:26 3.6
27 clk:27 10.5
28 clk:28 7.16
29 clk:29 12.6
30 clk:30 4.2
31 clk:31 12.6
32 clk:32 0.71
33 clk:33 14.7
34 clk:34 14.7
35 clk:35 16.8
36 clk:36 6.3
37 clk:37 4.2
38 clk:38 2.1
39 clk:39 2.64
40 clk:40 4.92
41 clk:41 2.1
42 clk:42 5.52
43 clk:43 1.5
44 clk:44 2.1
45 clk:45 4.2
46 clk:46 0.45
47 clk:47 12.6
48 clk:48 6.3
49 clk:49 0.64
50 clk:50 0.83
51 clk:51 2.1
52 clk:52 8.4
53 clk:53 11.23
54 clk:54 10.5
55 clk:55 16.8
56 clk:56 1.29
57 clk:57 6.3
58 clk:58 4.2
59 clk:59 9.78
60 clk:60 4.2
61 clk:61 8.4
62 clk:62 10.5
63 clk:63 0.59
64 clk:64 10.5
65 clk:65 21
66 clk:66 21
67 clk:67 4.2
68 clk:68 4.2
69 clk:69 2.74
70 clk:70 5.32
71 clk:71 15.62
72 clk:72 4.2
73 clk:73 2.1
74 clk:74 8.4
75 clk:75 0.36
76 clk:76 2.1
77 clk:77 6.3
78 clk:78 8.4
79 clk:79 10.5
80 clk:80 15.47
81 clk:81 2.1
82 clk:82 6.3
83 clk:83 10.5
84 clk:84 11.62
85 clk:85 2.1
86 clk:86 2.1
87 clk:87 10.5
88 clk:88 17.29
89 clk:89 2.85
90 clk:90 2.1
91 clk:91 2.1
92 clk:92 6.3
93 clk:93 2.1
94 clk:94 7.05
95 clk:95 3.71
96 clk:96 6.3
97 clk:97 2.1
98 clk:98 4.2
99 clk:99 2.1
100 clk:100 0
101 clk:101 0
102 clk:102 0
103 clk:103 0.103175
104 clk:104 0.134742
*RES
1 clk:1 clk:2 8.4
2 clk:3 clk:4 25.2
3 clk:5 clk:6 0.005
4 clk:6 clk:7 8.4
5 clk:7 clk:8 0.005
6 clk:7 clk:9 25.2
7 clk:9 clk:10 0.005
8 clk:10 clk:11 25.2
9 clk:12 clk:13 16.8
10 clk:14 clk:15 16.8
11 clk:16 clk:17 0.005
12 clk:17 clk:18 25.2
13 clk:18 clk:19 0.005
14 clk:19 clk:20 8.4
15 clk:21 clk:22 16.8
16 clk:23 clk:24 8.4
17 clk:25 clk:26 8.4
18 clk:27 clk:28 25.2
19 clk:13 clk:29 0.005
20 clk:29 clk:30 16.8
21 clk:30 clk:31 0.005
22 clk:32 clk:33 0.005
23 clk:33 clk:34 50.4
24 clk:34 clk:15 0.005
25 clk:35 clk:36 0.005
26 clk:36 clk:37 16.8
27 clk:37 clk:38 0.005
28 clk:38 clk:39 8.4
29 clk:40 clk:41 0.005
30 clk:41 clk:36 8.4
31 clk:42 clk:27 16.8
32 clk:43 clk:44 0.005
33 clk:44 clk:45 8.4
34 clk:45 clk:24 0.005
35 clk:46 clk:47 0.005
36 clk:47 clk:48 25.2
37 clk:48 clk:49 0.005
38 clk:50 clk:51 0.005
39 clk:51 clk:52 8.4
40 clk:52 clk:27 0.005
41 clk:53 clk:1 16.8
42 clk:1 clk:54 0.005
43 clk:54 clk:55 42
44 clk:55 clk:56 0.005
45 clk:55 clk:57 25.2
46 clk:57 clk:58 0.005
47 clk:58 clk:59 16.8
48 clk:60 clk:61 0.005
49 clk:61 clk:62 33.6
50 clk:62 clk:3 0.005
51 clk:63 clk:64 0.005
52 clk:64 clk:29 33.6
53 clk:65 clk:66 84
54 clk:65 clk:67 0.005
55 clk:67 clk:68 16.8
56 clk:68 clk:69 0.005
57 clk:60 clk:21 8.4
58 clk:70 clk:40 16.8
59 clk:71 clk:35 42
60 clk:72 clk:71 16.8
61 clk:72 clk:73 0.005
62 clk:73 clk:74 8.4
63 clk:74 clk:75 0.005
64 clk:45 clk:76 8.4
65 clk:76 clk:77 0.005
66 clk:77 clk:16 25.2
67 clk:25 clk:78 0.005
68 clk:78 clk:47 25.2
69 clk:79 clk:80 42
70 clk:79 clk:81 0.005
71 clk:81 clk:78 8.4
72 clk:52 clk:82 25.2
73 clk:82 clk:83 0.005
74 clk:84 clk:31 42
75 clk:59 clk:8 16.8
76 clk:11 clk:85 0.005
77 clk:85 clk:64 8.4
78 clk:34 clk:86 8.4
79 clk:86 clk:87 0.005
80 clk:87 clk:88 42
81 clk:89 clk:60 8.4
82 clk:84 clk:90 0.005
83 clk:90 clk:91 8.4
84 clk:91 clk:21 0.005
85 clk:74 clk:92 25.2
86 clk:92 clk:93 0.005
87 clk:94 clk:93 8.4
88 clk:80 clk:94 16.8
89 clk:35 clk:53 25.2
90 clk:31 clk:95 8.4
91 clk:11 clk:69 8.4
92 clk:16 clk:83 25.2
93 clk:88 clk:96 25.2
94 clk:96 clk:97 0.005
95 clk:62 clk:97 8.4
96 clk:83 clk:98 16.8
97 clk:98 clk:99 0.005
98 clk:99 clk:33 8.4
99 clk:66 clk:100 0.005
100 clk:100 clk:101 0.005
101 clk:101 clk:102 0.003
102 clk:102 clk:103 0.003
103 clk:103 clk:104 0.0063
104 _858_:CK clk:53 2.925
105 _859_:CK clk:2 4.445
106 _860_:CK clk:56 5.165
107 _861_:CK clk:4 4.685
108 _862_:CK clk:5 4.245
109 _863_:CK clk:69 2.565
110 _864_:CK clk:95 6.445
111 _865_:CK clk:14 3.005
112 _866_:CK clk:3 5.045
113 _867_:CK clk:20 5.805
114 _868_:CK clk:84 4.485
115 _869_:CK clk:40 2.885
116 _870_:CK clk:71 3.685
117 _871_:CK clk:75 1.445
118 _872_:CK clk:16 2.885
119 _873_:CK clk:23 8.605
120 _874_:CK clk:46 1.805
121 _875_:CK clk:26 6.005
122 _876_:CK clk:28 3.445
123 _877_:CK clk:22 4.525
124 _878_:CK clk:59 5.525
125 _879_:CK clk:63 2.365
126 _880_:CK clk:12 5.685
127 _881_:CK clk:15 1.565
128 _882_:CK clk:88 1.965
129 _883_:CK clk:32 2.845
130 _884_:CK clk:89 3.005
131 _885_:CK clk:39 2.165
132 _886_:CK clk:70 4.485
133 _887_:CK clk:94 3.005
134 _888_:CK clk:42 5.285
135 _889_:CK clk:43 6.005
136 _890_:CK clk:49 2.565
137 _891_:CK clk:80 3.085
138 _892_:CK clk:50 3.325
139 clk clk:104 0.0019275
*END

*D_NET req_msg[31] 35.4314
*CONN
*P req_msg[31] I
*I buffer1:A I *D BUF_X4
*CAP
1 req_msg[31]:1 4.965
2 req_msg[31]:2 4.2
3 req_msg[31]:3 10.5
4 req_msg[31]:4 10.5
5 req_msg[31]:5 2.1
6 req_msg[31]:6 2.1
7 req_msg[31]:7 0
8 req_msg[31]:8 0
9 req_msg[31]:9 0
10 req_msg[31]:10 0.103175
11 req_msg[31]:11 0.150709
*RES
1 req_msg[31]:1 req_msg[31]:2 16.8
2 req_msg[31]:2 req_msg[31]:3 0.005
3 req_msg[31]:3 req_msg[31]:4 42
4 req_msg[31]:4 req_msg[31]:5 0.005
5 req_msg[31]:5 req_msg[31]:6 8.4
6 req_msg[31]:6 req_msg[31]:7 0.005
7 req_msg[31]:7 req_msg[31]:8 0.005
8 req_msg[31]:8 req_msg[31]:9 0.003
9 req_msg[31]:9 req_msg[31]:10 0.003
10 req_msg[31]:10 req_msg[31]:11 0.0063
11 buffer1:A req_msg[31]:1 3.065
12 req_msg[31] req_msg[31]:11 0.0029025
*END

*D_NET req_msg[30] 14.0457
*CONN
*P req_msg[30] I
*I buffer2:A I *D BUF_X4
*CAP
1 req_msg[30]:1 6.895
2 req_msg[30]:2 6.3
3 req_msg[30]:3 0
4 req_msg[30]:4 0
5 req_msg[30]:5 0
6 req_msg[30]:6 0.103175
7 req_msg[30]:7 0.127864
*RES
1 req_msg[30]:1 req_msg[30]:2 25.2
2 req_msg[30]:2 req_msg[30]:3 0.005
3 req_msg[30]:3 req_msg[30]:4 0.005
4 req_msg[30]:4 req_msg[30]:5 0.003
5 req_msg[30]:5 req_msg[30]:6 0.003
6 req_msg[30]:6 req_msg[30]:7 0.0063
7 buffer2:A req_msg[30]:1 2.385
8 req_msg[30] req_msg[30]:7 0.0015075
*END

*D_NET req_msg[29] 15.2414
*CONN
*P req_msg[29] I
*I buffer3:A I *D BUF_X4
*CAP
1 req_msg[29]:1 6.3
2 req_msg[29]:2 7.47
3 req_msg[29]:3 0
4 req_msg[29]:4 0
5 req_msg[29]:5 0
6 req_msg[29]:6 0.150709
7 req_msg[29]:7 0.103175
*RES
1 req_msg[29]:1 req_msg[29]:2 25.2
2 req_msg[29]:1 req_msg[29]:3 0.005
3 req_msg[29]:3 req_msg[29]:4 0.005
4 req_msg[29]:4 req_msg[29]:5 0.003
5 req_msg[29]:5 req_msg[29]:5 0.003
6 req_msg[29]:6 req_msg[29]:7 0.0063
7 buffer3:A req_msg[29]:2 4.685
8 req_msg[29] req_msg[29]:6 0.0029025
*END

*D_NET req_msg[28] 16.4811
*CONN
*P req_msg[28] I
*I buffer4:A I *D BUF_X4
*CAP
1 req_msg[28]:1 4.2
2 req_msg[28]:2 4.2
3 req_msg[28]:3 2.1
4 req_msg[28]:4 4.02
5 req_msg[28]:5 0
6 req_msg[28]:6 0.0205325
7 req_msg[28]:7 0.0139994
*RES
1 req_msg[28]:1 req_msg[28]:2 16.8
2 req_msg[28]:2 req_msg[28]:3 0.005
3 req_msg[28]:3 req_msg[28]:4 8.4
4 req_msg[28]:1 req_msg[28]:5 0.005
5 req_msg[28]:5 req_msg[28]:5 0.003
6 req_msg[28]:6 req_msg[28]:7 0.0063
7 buffer4:A req_msg[28]:4 7.685
8 req_msg[28] req_msg[28]:6 0.00294
*END

*D_NET req_msg[27] 14.1301
*CONN
*P req_msg[27] I
*I buffer5:A I *D BUF_X4
*CAP
1 req_msg[27]:1 6.935
2 req_msg[27]:2 6.3
3 req_msg[27]:3 0
4 req_msg[27]:4 0
5 req_msg[27]:5 0
6 req_msg[27]:6 0.103175
7 req_msg[27]:7 0.130074
*RES
1 req_msg[27]:1 req_msg[27]:2 25.2
2 req_msg[27]:2 req_msg[27]:3 0.005
3 req_msg[27]:3 req_msg[27]:4 0.005
4 req_msg[27]:4 req_msg[27]:5 0.003
5 req_msg[27]:5 req_msg[27]:6 0.003
6 req_msg[27]:6 req_msg[27]:7 0.0063
7 buffer5:A req_msg[27]:1 2.545
8 req_msg[27] req_msg[27]:7 0.0016425
*END

*D_NET req_msg[26] 15.0945
*CONN
*P req_msg[26] I
*I buffer6:A I *D BUF_X4
*CAP
1 req_msg[26]:1 6.3
2 req_msg[26]:2 7.4
3 req_msg[26]:3 0
4 req_msg[26]:4 0
5 req_msg[26]:5 0
6 req_msg[26]:6 0.14727
7 req_msg[26]:7 0.103175
*RES
1 req_msg[26]:1 req_msg[26]:2 25.2
2 req_msg[26]:1 req_msg[26]:3 0.005
3 req_msg[26]:3 req_msg[26]:4 0.005
4 req_msg[26]:4 req_msg[26]:5 0.003
5 req_msg[26]:5 req_msg[26]:5 0.003
6 req_msg[26]:6 req_msg[26]:7 0.0063
7 buffer6:A req_msg[26]:2 4.405
8 req_msg[26] req_msg[26]:6 0.0026925
*END

*D_NET req_msg[25] 14.6239
*CONN
*P req_msg[25] I
*I buffer7:A I *D BUF_X4
*CAP
1 req_msg[25]:1 7.175
2 req_msg[25]:2 6.3
3 req_msg[25]:3 0
4 req_msg[25]:4 0
5 req_msg[25]:5 0
6 req_msg[25]:6 0.103175
7 req_msg[25]:7 0.136953
*RES
1 req_msg[25]:1 req_msg[25]:2 25.2
2 req_msg[25]:2 req_msg[25]:3 0.005
3 req_msg[25]:3 req_msg[25]:4 0.005
4 req_msg[25]:4 req_msg[25]:5 0.003
5 req_msg[25]:5 req_msg[25]:6 0.003
6 req_msg[25]:6 req_msg[25]:7 0.0063
7 buffer7:A req_msg[25]:1 3.505
8 req_msg[25] req_msg[25]:7 0.0020625
*END

*D_NET req_msg[24] 19.9497
*CONN
*P req_msg[24] I
*I buffer8:A I *D BUF_X4
*CAP
1 req_msg[24]:1 3.65
2 req_msg[24]:2 2.1
3 req_msg[24]:3 6.3
4 req_msg[24]:4 6.3
5 req_msg[24]:5 0
6 req_msg[24]:6 0.0139994
7 req_msg[24]:7 0.0248323
*RES
1 req_msg[24]:2 req_msg[24]:1 8.4
2 req_msg[24]:2 req_msg[24]:3 0.005
3 req_msg[24]:3 req_msg[24]:4 25.2
4 req_msg[24]:4 req_msg[24]:5 0.005
5 req_msg[24]:5 req_msg[24]:6 0.003
6 req_msg[24]:6 req_msg[24]:7 0.0063
7 buffer8:A req_msg[24]:1 6.205
8 req_msg[24] req_msg[24]:7 0.004875
*END

*D_NET req_msg[23] 15.1508
*CONN
*P req_msg[23] I
*I buffer9:A I *D BUF_X4
*CAP
1 req_msg[23]:1 7.435
2 req_msg[23]:2 6.3
3 req_msg[23]:3 0
4 req_msg[23]:4 0
5 req_msg[23]:5 0
6 req_msg[23]:6 0.103175
7 req_msg[23]:7 0.140392
*RES
1 req_msg[23]:1 req_msg[23]:2 25.2
2 req_msg[23]:2 req_msg[23]:3 0.005
3 req_msg[23]:3 req_msg[23]:4 0.005
4 req_msg[23]:4 req_msg[23]:5 0.003
5 req_msg[23]:5 req_msg[23]:6 0.003
6 req_msg[23]:6 req_msg[23]:7 0.0063
7 buffer9:A req_msg[23]:1 4.545
8 req_msg[23] req_msg[23]:7 0.0022725
*END

*D_NET req_msg[22] 34.6087
*CONN
*P req_msg[22] I
*I buffer10:A I *D BUF_X4
*CAP
1 req_msg[22]:1 8.4
2 req_msg[22]:2 8.88
3 req_msg[22]:3 8.4
4 req_msg[22]:4 8.4
5 req_msg[22]:5 0
6 req_msg[22]:6 0.0139994
7 req_msg[22]:7 0.0243656
*RES
1 req_msg[22]:1 req_msg[22]:2 33.6
2 req_msg[22]:1 req_msg[22]:3 0.005
3 req_msg[22]:3 req_msg[22]:4 33.6
4 req_msg[22]:4 req_msg[22]:5 0.005
5 req_msg[22]:5 req_msg[22]:6 0.003
6 req_msg[22]:6 req_msg[22]:7 0.0063
7 buffer10:A req_msg[22]:2 1.925
8 req_msg[22] req_msg[22]:7 0.004665
*END

*D_NET req_msg[21] 14.6987
*CONN
*P req_msg[21] I
*I buffer11:A I *D BUF_X4
*CAP
1 req_msg[21]:1 1.025
2 req_msg[21]:2 6.3
3 req_msg[21]:3 6.3
4 req_msg[21]:4 0
5 req_msg[21]:5 0.0139994
6 req_msg[21]:6 0.0243656
*RES
1 req_msg[21]:1 req_msg[21]:2 0.005
2 req_msg[21]:2 req_msg[21]:3 25.2
3 req_msg[21]:3 req_msg[21]:4 0.005
4 req_msg[21]:4 req_msg[21]:5 0.003
5 req_msg[21]:5 req_msg[21]:6 0.0063
6 buffer11:A req_msg[21]:1 4.105
7 req_msg[21] req_msg[21]:6 0.004665
*END

*D_NET req_msg[20] 18.7839
*CONN
*P req_msg[20] I
*I buffer12:A I *D BUF_X4
*CAP
1 req_msg[20]:1 2.1
2 req_msg[20]:2 2.1
3 req_msg[20]:3 2.1
4 req_msg[20]:4 2.1
5 req_msg[20]:5 4.2
6 req_msg[20]:6 5.04
7 req_msg[20]:7 0
8 req_msg[20]:8 0
9 req_msg[20]:9 0
10 req_msg[20]:10 0.151938
11 req_msg[20]:11 0.103175
*RES
1 req_msg[20]:1 req_msg[20]:2 8.4
2 req_msg[20]:2 req_msg[20]:3 0.005
3 req_msg[20]:3 req_msg[20]:4 8.4
4 req_msg[20]:4 req_msg[20]:5 0.005
5 req_msg[20]:5 req_msg[20]:6 16.8
6 req_msg[20]:1 req_msg[20]:7 0.005
7 req_msg[20]:7 req_msg[20]:8 0.005
8 req_msg[20]:8 req_msg[20]:9 0.003
9 req_msg[20]:9 req_msg[20]:9 0.003
10 req_msg[20]:10 req_msg[20]:11 0.0063
11 buffer12:A req_msg[20]:6 3.365
12 req_msg[20] req_msg[20]:10 0.0029775
*END

*D_NET req_msg[19] 14.657
*CONN
*P req_msg[19] I
*I buffer13:A I *D BUF_X4
*CAP
1 req_msg[19]:1 7.195
2 req_msg[19]:2 6.3
3 req_msg[19]:3 0
4 req_msg[19]:4 0
5 req_msg[19]:5 0
6 req_msg[19]:6 0.103175
7 req_msg[19]:7 0.133514
*RES
1 req_msg[19]:1 req_msg[19]:2 25.2
2 req_msg[19]:2 req_msg[19]:3 0.005
3 req_msg[19]:3 req_msg[19]:4 0.005
4 req_msg[19]:4 req_msg[19]:5 0.003
5 req_msg[19]:5 req_msg[19]:6 0.003
6 req_msg[19]:6 req_msg[19]:7 0.0063
7 buffer13:A req_msg[19]:1 3.585
8 req_msg[19] req_msg[19]:7 0.0018525
*END

*D_NET req_msg[18] 15.0664
*CONN
*P req_msg[18] I
*I buffer14:A I *D BUF_X4
*CAP
1 req_msg[18]:1 7.395
2 req_msg[18]:2 6.3
3 req_msg[18]:3 0
4 req_msg[18]:4 0
5 req_msg[18]:5 0
6 req_msg[18]:6 0.103175
7 req_msg[18]:7 0.138181
*RES
1 req_msg[18]:1 req_msg[18]:2 25.2
2 req_msg[18]:2 req_msg[18]:3 0.005
3 req_msg[18]:3 req_msg[18]:4 0.005
4 req_msg[18]:4 req_msg[18]:5 0.003
5 req_msg[18]:5 req_msg[18]:6 0.003
6 req_msg[18]:6 req_msg[18]:7 0.0063
7 buffer14:A req_msg[18]:1 4.385
8 req_msg[18] req_msg[18]:7 0.0021375
*END

*D_NET req_msg[17] 13.9941
*CONN
*P req_msg[17] I
*I buffer15:A I *D BUF_X4
*CAP
1 req_msg[17]:1 0.675
2 req_msg[17]:2 6.3
3 req_msg[17]:3 6.3
4 req_msg[17]:4 0
5 req_msg[17]:5 0.0139994
6 req_msg[17]:6 0.0220324
*RES
1 req_msg[17]:1 req_msg[17]:2 0.005
2 req_msg[17]:2 req_msg[17]:3 25.2
3 req_msg[17]:3 req_msg[17]:4 0.005
4 req_msg[17]:4 req_msg[17]:5 0.003
5 req_msg[17]:5 req_msg[17]:6 0.0063
6 buffer15:A req_msg[17]:1 2.705
7 req_msg[17] req_msg[17]:6 0.003615
*END

*D_NET req_msg[16] 15.5245
*CONN
*P req_msg[16] I
*I buffer16:A I *D BUF_X4
*CAP
1 req_msg[16]:1 7.615
2 req_msg[16]:2 6.3
3 req_msg[16]:3 0
4 req_msg[16]:4 0
5 req_msg[16]:5 0
6 req_msg[16]:6 0.103175
7 req_msg[16]:7 0.14727
*RES
1 req_msg[16]:1 req_msg[16]:2 25.2
2 req_msg[16]:2 req_msg[16]:3 0.005
3 req_msg[16]:3 req_msg[16]:4 0.005
4 req_msg[16]:4 req_msg[16]:5 0.003
5 req_msg[16]:5 req_msg[16]:6 0.003
6 req_msg[16]:6 req_msg[16]:7 0.0063
7 buffer16:A req_msg[16]:1 5.265
8 req_msg[16] req_msg[16]:7 0.0026925
*END

*D_NET req_msg[15] 36.6326
*CONN
*P req_msg[15] I
*I buffer17:A I *D BUF_X4
*CAP
1 req_msg[15]:1 6.3
2 req_msg[15]:2 6.3
3 req_msg[15]:3 10.5
4 req_msg[15]:4 10.5
5 req_msg[15]:5 1.385
6 req_msg[15]:6 0
7 req_msg[15]:7 0
8 req_msg[15]:8 0
9 req_msg[15]:9 0.103175
10 req_msg[15]:10 0.131303
*RES
1 req_msg[15]:1 req_msg[15]:2 25.2
2 req_msg[15]:1 req_msg[15]:3 0.005
3 req_msg[15]:3 req_msg[15]:4 42
4 req_msg[15]:4 req_msg[15]:5 0.005
5 req_msg[15]:2 req_msg[15]:6 0.005
6 req_msg[15]:6 req_msg[15]:7 0.005
7 req_msg[15]:7 req_msg[15]:8 0.003
8 req_msg[15]:8 req_msg[15]:9 0.003
9 req_msg[15]:9 req_msg[15]:10 0.0063
10 buffer17:A req_msg[15]:5 5.545
11 req_msg[15] req_msg[15]:10 0.0017175
*END

*D_NET req_msg[14] 13.847
*CONN
*P req_msg[14] I
*I buffer18:A I *D BUF_X4
*CAP
1 req_msg[14]:1 6.3
2 req_msg[14]:2 6.79
3 req_msg[14]:3 0
4 req_msg[14]:4 0
5 req_msg[14]:5 0
6 req_msg[14]:6 0.133514
7 req_msg[14]:7 0.103175
*RES
1 req_msg[14]:1 req_msg[14]:2 25.2
2 req_msg[14]:1 req_msg[14]:3 0.005
3 req_msg[14]:3 req_msg[14]:4 0.005
4 req_msg[14]:4 req_msg[14]:5 0.003
5 req_msg[14]:5 req_msg[14]:5 0.003
6 req_msg[14]:6 req_msg[14]:7 0.0063
7 buffer18:A req_msg[14]:2 1.965
8 req_msg[14] req_msg[14]:6 0.0018525
*END

*D_NET req_msg[13] 14.7477
*CONN
*P req_msg[13] I
*I buffer19:A I *D BUF_X4
*CAP
1 req_msg[13]:1 6.3
2 req_msg[13]:2 7.23
3 req_msg[13]:3 0
4 req_msg[13]:4 0
5 req_msg[13]:5 0
6 req_msg[13]:6 0.143831
7 req_msg[13]:7 0.103175
*RES
1 req_msg[13]:1 req_msg[13]:2 25.2
2 req_msg[13]:1 req_msg[13]:3 0.005
3 req_msg[13]:3 req_msg[13]:4 0.005
4 req_msg[13]:4 req_msg[13]:5 0.003
5 req_msg[13]:5 req_msg[13]:5 0.003
6 req_msg[13]:6 req_msg[13]:7 0.0063
7 buffer19:A req_msg[13]:2 3.725
8 req_msg[13] req_msg[13]:6 0.0024825
*END

*D_NET req_msg[12] 15.3978
*CONN
*P req_msg[12] I
*I buffer20:A I *D BUF_X4
*CAP
1 req_msg[12]:1 1.375
2 req_msg[12]:2 6.3
3 req_msg[12]:3 6.3
4 req_msg[12]:4 0
5 req_msg[12]:5 0.0139994
6 req_msg[12]:6 0.023899
*RES
1 req_msg[12]:1 req_msg[12]:2 0.005
2 req_msg[12]:2 req_msg[12]:3 25.2
3 req_msg[12]:3 req_msg[12]:4 0.005
4 req_msg[12]:4 req_msg[12]:5 0.003
5 req_msg[12]:5 req_msg[12]:6 0.0063
6 buffer20:A req_msg[12]:1 5.505
7 req_msg[12] req_msg[12]:6 0.004455
*END

*D_NET req_msg[11] 14.9301
*CONN
*P req_msg[11] I
*I buffer21:A I *D BUF_X4
*CAP
1 req_msg[11]:1 6.3
2 req_msg[11]:2 7.32
3 req_msg[11]:3 0
4 req_msg[11]:4 0
5 req_msg[11]:5 0
6 req_msg[11]:6 0.145059
7 req_msg[11]:7 0.103175
*RES
1 req_msg[11]:1 req_msg[11]:2 25.2
2 req_msg[11]:1 req_msg[11]:3 0.005
3 req_msg[11]:3 req_msg[11]:4 0.005
4 req_msg[11]:4 req_msg[11]:5 0.003
5 req_msg[11]:5 req_msg[11]:5 0.003
6 req_msg[11]:6 req_msg[11]:7 0.0063
7 buffer21:A req_msg[11]:2 4.085
8 req_msg[11] req_msg[11]:6 0.0025575
*END

*D_NET req_msg[10] 15.5601
*CONN
*P req_msg[10] I
*I buffer22:A I *D BUF_X4
*CAP
1 req_msg[10]:1 7.635
2 req_msg[10]:2 6.3
3 req_msg[10]:3 0
4 req_msg[10]:4 0
5 req_msg[10]:5 0
6 req_msg[10]:6 0.103175
7 req_msg[10]:7 0.145059
*RES
1 req_msg[10]:1 req_msg[10]:2 25.2
2 req_msg[10]:2 req_msg[10]:3 0.005
3 req_msg[10]:3 req_msg[10]:4 0.005
4 req_msg[10]:4 req_msg[10]:5 0.003
5 req_msg[10]:5 req_msg[10]:6 0.003
6 req_msg[10]:6 req_msg[10]:7 0.0063
7 buffer22:A req_msg[10]:1 5.345
8 req_msg[10] req_msg[10]:7 0.0025575
*END

*D_NET req_msg[9] 10.8764
*CONN
*P req_msg[9] I
*I buffer23:A I *D BUF_X4
*CAP
1 req_msg[9]:1 4.2
2 req_msg[9]:2 4.2
3 req_msg[9]:3 1.22
4 req_msg[9]:4 0
5 req_msg[9]:5 0.0181992
6 req_msg[9]:6 0.0139994
*RES
1 req_msg[9]:1 req_msg[9]:2 16.8
2 req_msg[9]:2 req_msg[9]:3 0.005
3 req_msg[9]:1 req_msg[9]:4 0.005
4 req_msg[9]:4 req_msg[9]:4 0.003
5 req_msg[9]:5 req_msg[9]:6 0.0063
6 buffer23:A req_msg[9]:3 4.885
7 req_msg[9] req_msg[9]:5 0.00189
*END

*D_NET req_msg[8] 23.3245
*CONN
*P req_msg[8] I
*I buffer24:A I *D BUF_X4
*CAP
1 req_msg[8]:1 6.3
2 req_msg[8]:2 6.3
3 req_msg[8]:3 4.2
4 req_msg[8]:4 4.2
5 req_msg[8]:5 1.015
6 req_msg[8]:6 0
7 req_msg[8]:7 0
8 req_msg[8]:8 0
9 req_msg[8]:9 0.103175
10 req_msg[8]:10 0.14727
*RES
1 req_msg[8]:1 req_msg[8]:2 25.2
2 req_msg[8]:1 req_msg[8]:3 0.005
3 req_msg[8]:3 req_msg[8]:4 16.8
4 req_msg[8]:4 req_msg[8]:5 0.005
5 req_msg[8]:2 req_msg[8]:6 0.005
6 req_msg[8]:6 req_msg[8]:7 0.005
7 req_msg[8]:7 req_msg[8]:8 0.003
8 req_msg[8]:8 req_msg[8]:9 0.003
9 req_msg[8]:9 req_msg[8]:10 0.0063
10 buffer24:A req_msg[8]:5 4.065
11 req_msg[8] req_msg[8]:10 0.0026925
*END

*D_NET req_msg[7] 14.3459
*CONN
*P req_msg[7] I
*I buffer25:A I *D BUF_X4
*CAP
1 req_msg[7]:1 0.85
2 req_msg[7]:2 6.3
3 req_msg[7]:3 6.3
4 req_msg[7]:4 0
5 req_msg[7]:5 0.0139994
6 req_msg[7]:6 0.0229657
*RES
1 req_msg[7]:1 req_msg[7]:2 0.005
2 req_msg[7]:2 req_msg[7]:3 25.2
3 req_msg[7]:3 req_msg[7]:4 0.005
4 req_msg[7]:4 req_msg[7]:5 0.003
5 req_msg[7]:5 req_msg[7]:6 0.0063
6 buffer25:A req_msg[7]:1 3.405
7 req_msg[7] req_msg[7]:6 0.004035
*END

*D_NET req_msg[6] 11.2301
*CONN
*P req_msg[6] I
*I buffer26:A I *D BUF_X4
*CAP
1 req_msg[6]:1 4.2
2 req_msg[6]:2 4.2
3 req_msg[6]:3 1.395
4 req_msg[6]:4 0
5 req_msg[6]:5 0.0200658
6 req_msg[6]:6 0.0139994
*RES
1 req_msg[6]:1 req_msg[6]:2 16.8
2 req_msg[6]:2 req_msg[6]:3 0.005
3 req_msg[6]:1 req_msg[6]:4 0.005
4 req_msg[6]:4 req_msg[6]:4 0.003
5 req_msg[6]:5 req_msg[6]:6 0.0063
6 buffer26:A req_msg[6]:3 5.585
7 req_msg[6] req_msg[6]:5 0.00273
*END

*D_NET req_msg[5] 28.567
*CONN
*P req_msg[5] I
*I buffer27:A I *D BUF_X4
*CAP
1 req_msg[5]:1 8.4
2 req_msg[5]:2 9.95
3 req_msg[5]:3 2.1
4 req_msg[5]:4 2.1
5 req_msg[5]:5 2.1
6 req_msg[5]:6 2.1
7 req_msg[5]:7 0
8 req_msg[5]:8 0
9 req_msg[5]:9 0
10 req_msg[5]:10 0.133514
11 req_msg[5]:11 0.103175
*RES
1 req_msg[5]:1 req_msg[5]:2 33.6
2 req_msg[5]:1 req_msg[5]:3 0.005
3 req_msg[5]:3 req_msg[5]:4 8.4
4 req_msg[5]:4 req_msg[5]:5 0.005
5 req_msg[5]:6 req_msg[5]:5 8.4
6 req_msg[5]:6 req_msg[5]:7 0.005
7 req_msg[5]:7 req_msg[5]:8 0.005
8 req_msg[5]:8 req_msg[5]:9 0.003
9 req_msg[5]:9 req_msg[5]:9 0.003
10 req_msg[5]:10 req_msg[5]:11 0.0063
11 buffer27:A req_msg[5]:2 6.205
12 req_msg[5] req_msg[5]:10 0.0018525
*END

*D_NET req_msg[4] 19.9459
*CONN
*P req_msg[4] I
*I buffer28:A I *D BUF_X4
*CAP
1 req_msg[4]:1 3.65
2 req_msg[4]:2 2.1
3 req_msg[4]:3 6.3
4 req_msg[4]:4 6.3
5 req_msg[4]:5 0
6 req_msg[4]:6 0.0139994
7 req_msg[4]:7 0.0229657
*RES
1 req_msg[4]:2 req_msg[4]:1 8.4
2 req_msg[4]:2 req_msg[4]:3 0.005
3 req_msg[4]:3 req_msg[4]:4 25.2
4 req_msg[4]:4 req_msg[4]:5 0.005
5 req_msg[4]:5 req_msg[4]:6 0.003
6 req_msg[4]:6 req_msg[4]:7 0.0063
7 buffer28:A req_msg[4]:1 6.205
8 req_msg[4] req_msg[4]:7 0.004035
*END

*D_NET req_msg[3] 15.0764
*CONN
*P req_msg[3] I
*I buffer29:A I *D BUF_X4
*CAP
1 req_msg[3]:1 2.1
2 req_msg[3]:2 2.1
3 req_msg[3]:3 4.2
4 req_msg[3]:4 4.2
5 req_msg[3]:5 1.22
6 req_msg[3]:6 0
7 req_msg[3]:7 0
8 req_msg[3]:8 0.0181992
9 req_msg[3]:9 0.0139994
*RES
1 req_msg[3]:1 req_msg[3]:2 8.4
2 req_msg[3]:1 req_msg[3]:3 0.005
3 req_msg[3]:3 req_msg[3]:4 16.8
4 req_msg[3]:4 req_msg[3]:5 0.005
5 req_msg[3]:2 req_msg[3]:6 0.005
6 req_msg[3]:6 req_msg[3]:7 0.005
7 req_msg[3]:7 req_msg[3]:7 0.003
8 req_msg[3]:8 req_msg[3]:9 0.0063
9 buffer29:A req_msg[3]:5 4.885
10 req_msg[3] req_msg[3]:8 0.00189
*END

*D_NET req_msg[2] 36.7857
*CONN
*P req_msg[2] I
*I buffer30:A I *D BUF_X4
*CAP
1 req_msg[2]:1 5.665
2 req_msg[2]:2 4.2
3 req_msg[2]:3 10.5
4 req_msg[2]:4 10.5
5 req_msg[2]:5 2.1
6 req_msg[2]:6 2.1
7 req_msg[2]:7 0
8 req_msg[2]:8 0
9 req_msg[2]:9 0
10 req_msg[2]:10 0.103175
11 req_msg[2]:11 0.127864
*RES
1 req_msg[2]:1 req_msg[2]:2 16.8
2 req_msg[2]:2 req_msg[2]:3 0.005
3 req_msg[2]:3 req_msg[2]:4 42
4 req_msg[2]:4 req_msg[2]:5 0.005
5 req_msg[2]:5 req_msg[2]:6 8.4
6 req_msg[2]:6 req_msg[2]:7 0.005
7 req_msg[2]:7 req_msg[2]:8 0.005
8 req_msg[2]:8 req_msg[2]:9 0.003
9 req_msg[2]:9 req_msg[2]:10 0.003
10 req_msg[2]:10 req_msg[2]:11 0.0063
11 buffer30:A req_msg[2]:1 5.865
12 req_msg[2] req_msg[2]:11 0.0015075
*END

*D_NET req_msg[1] 14.2895
*CONN
*P req_msg[1] I
*I buffer31:A I *D BUF_X4
*CAP
1 req_msg[1]:1 6.3
2 req_msg[1]:2 7.01
3 req_msg[1]:3 0
4 req_msg[1]:4 0
5 req_msg[1]:5 0
6 req_msg[1]:6 0.134742
7 req_msg[1]:7 0.103175
*RES
1 req_msg[1]:1 req_msg[1]:2 25.2
2 req_msg[1]:1 req_msg[1]:3 0.005
3 req_msg[1]:3 req_msg[1]:4 0.005
4 req_msg[1]:4 req_msg[1]:5 0.003
5 req_msg[1]:5 req_msg[1]:5 0.003
6 req_msg[1]:6 req_msg[1]:7 0.0063
7 buffer31:A req_msg[1]:2 2.845
8 req_msg[1] req_msg[1]:6 0.0019275
*END

*D_NET req_msg[0] 14.345
*CONN
*P req_msg[0] I
*I buffer32:A I *D BUF_X4
*CAP
1 req_msg[0]:1 0.85
2 req_msg[0]:2 6.3
3 req_msg[0]:3 6.3
4 req_msg[0]:4 0
5 req_msg[0]:5 0.0139994
6 req_msg[0]:6 0.022499
*RES
1 req_msg[0]:1 req_msg[0]:2 0.005
2 req_msg[0]:2 req_msg[0]:3 25.2
3 req_msg[0]:3 req_msg[0]:4 0.005
4 req_msg[0]:4 req_msg[0]:5 0.003
5 req_msg[0]:5 req_msg[0]:6 0.0063
6 buffer32:A req_msg[0]:1 3.405
7 req_msg[0] req_msg[0]:6 0.003825
*END

*D_NET req_rdy 35.6583
*CONN
*P req_rdy O
*I buffer36:Z O *D BUF_X4
*CAP
1 req_rdy:1 6.3
2 req_rdy:2 6.3
3 req_rdy:3 10.5
4 req_rdy:4 10.5
5 req_rdy:5 0.875
6 req_rdy:6 0
7 req_rdy:7 0
8 req_rdy:8 0
9 req_rdy:9 0.154149
10 req_rdy:10 0.103175
*RES
1 req_rdy:1 req_rdy:2 25.2
2 req_rdy:2 req_rdy:3 0.005
3 req_rdy:3 req_rdy:4 42
4 req_rdy:4 req_rdy:5 0.005
5 req_rdy:1 req_rdy:6 0.005
6 req_rdy:6 req_rdy:7 0.005
7 req_rdy:7 req_rdy:8 0.003
8 req_rdy:8 req_rdy:8 0.003
9 req_rdy:9 req_rdy:10 0.0063
10 buffer36:Z req_rdy:5 3.505
11 req_rdy req_rdy:9 0.0031125
*END

*D_NET req_val 26.5569
*CONN
*P req_val I
*I buffer33:A I *D BUF_X4
*CAP
1 req_val:1 4.855
2 req_val:2 4.2
3 req_val:3 8.4
4 req_val:4 8.4
5 req_val:5 0
6 req_val:6 0.0139994
7 req_val:7 0.0234323
*RES
1 req_val:1 req_val:2 16.8
2 req_val:2 req_val:3 0.005
3 req_val:3 req_val:4 33.6
4 req_val:4 req_val:5 0.005
5 req_val:5 req_val:6 0.003
6 req_val:6 req_val:7 0.0063
7 buffer33:A req_val:1 2.625
8 req_val req_val:7 0.004245
*END

*D_NET reset 11.9292
*CONN
*P reset I
*I buffer34:A I *D BUF_X4
*CAP
1 reset:1 4.2
2 reset:2 4.2
3 reset:3 1.745
4 reset:4 0
5 reset:5 0.0195992
6 reset:6 0.0139994
*RES
1 reset:1 reset:2 16.8
2 reset:2 reset:3 0.005
3 reset:1 reset:4 0.005
4 reset:4 reset:4 0.003
5 reset:5 reset:6 0.0063
6 buffer34:A reset:3 6.985
7 reset reset:5 0.00252
*END

*D_NET resp_msg[15] 28.6101
*CONN
*P resp_msg[15] O
*I buffer37:Z O *D BUF_X4
*CAP
1 resp_msg[15]:1 6.3
2 resp_msg[15]:2 6.3
3 resp_msg[15]:3 4.2
4 resp_msg[15]:4 4.2
5 resp_msg[15]:5 2.1
6 resp_msg[15]:6 3.675
7 resp_msg[15]:7 0
8 resp_msg[15]:8 0
9 resp_msg[15]:9 0
10 resp_msg[15]:10 0.130074
11 resp_msg[15]:11 0.103175
*RES
1 resp_msg[15]:1 resp_msg[15]:2 25.2
2 resp_msg[15]:2 resp_msg[15]:3 0.005
3 resp_msg[15]:3 resp_msg[15]:4 16.8
4 resp_msg[15]:4 resp_msg[15]:5 0.005
5 resp_msg[15]:5 resp_msg[15]:6 8.4
6 resp_msg[15]:1 resp_msg[15]:7 0.005
7 resp_msg[15]:7 resp_msg[15]:8 0.005
8 resp_msg[15]:8 resp_msg[15]:9 0.003
9 resp_msg[15]:9 resp_msg[15]:9 0.003
10 resp_msg[15]:10 resp_msg[15]:11 0.0063
11 buffer37:Z resp_msg[15]:6 6.305
12 resp_msg[15] resp_msg[15]:10 0.0016425
*END

*D_NET resp_msg[14] 19.3732
*CONN
*P resp_msg[14] O
*I buffer38:Z O *D BUF_X4
*CAP
1 resp_msg[14]:1 2.1
2 resp_msg[14]:2 2.1
3 resp_msg[14]:3 2.1
4 resp_msg[14]:4 2.1
5 resp_msg[14]:5 4.2
6 resp_msg[14]:6 5.345
7 resp_msg[14]:7 0
8 resp_msg[14]:8 0
9 resp_msg[14]:9 0
10 resp_msg[14]:10 0.14162
11 resp_msg[14]:11 0.103175
*RES
1 resp_msg[14]:1 resp_msg[14]:2 8.4
2 resp_msg[14]:2 resp_msg[14]:3 0.005
3 resp_msg[14]:3 resp_msg[14]:4 8.4
4 resp_msg[14]:4 resp_msg[14]:5 0.005
5 resp_msg[14]:5 resp_msg[14]:6 16.8
6 resp_msg[14]:1 resp_msg[14]:7 0.005
7 resp_msg[14]:7 resp_msg[14]:8 0.005
8 resp_msg[14]:8 resp_msg[14]:9 0.003
9 resp_msg[14]:9 resp_msg[14]:9 0.003
10 resp_msg[14]:10 resp_msg[14]:11 0.0063
11 buffer38:Z resp_msg[14]:6 4.585
12 resp_msg[14] resp_msg[14]:10 0.0023475
*END

*D_NET resp_msg[13] 10.9359
*CONN
*P resp_msg[13] O
*I buffer39:Z O *D BUF_X4
*CAP
1 resp_msg[13]:1 1.245
2 resp_msg[13]:2 4.2
3 resp_msg[13]:3 4.2
4 resp_msg[13]:4 0
5 resp_msg[13]:5 0.0139994
6 resp_msg[13]:6 0.0229657
*RES
1 resp_msg[13]:1 resp_msg[13]:2 0.005
2 resp_msg[13]:2 resp_msg[13]:3 16.8
3 resp_msg[13]:3 resp_msg[13]:4 0.005
4 resp_msg[13]:4 resp_msg[13]:5 0.003
5 resp_msg[13]:5 resp_msg[13]:6 0.0063
6 buffer39:Z resp_msg[13]:1 4.985
7 resp_msg[13] resp_msg[13]:6 0.004035
*END

*D_NET resp_msg[12] 33.587
*CONN
*P resp_msg[12] O
*I buffer40:Z O *D BUF_X4
*CAP
1 resp_msg[12]:1 6.3
2 resp_msg[12]:2 8.245
3 resp_msg[12]:3 6.3
4 resp_msg[12]:4 6.3
5 resp_msg[12]:5 2.1
6 resp_msg[12]:6 2.1
7 resp_msg[12]:7 0
8 resp_msg[12]:8 0
9 resp_msg[12]:9 0
10 resp_msg[12]:10 0.148499
11 resp_msg[12]:11 0.103175
*RES
1 resp_msg[12]:1 resp_msg[12]:2 25.2
2 resp_msg[12]:1 resp_msg[12]:3 0.005
3 resp_msg[12]:3 resp_msg[12]:4 25.2
4 resp_msg[12]:4 resp_msg[12]:5 0.005
5 resp_msg[12]:6 resp_msg[12]:5 8.4
6 resp_msg[12]:6 resp_msg[12]:7 0.005
7 resp_msg[12]:7 resp_msg[12]:8 0.005
8 resp_msg[12]:8 resp_msg[12]:9 0.003
9 resp_msg[12]:9 resp_msg[12]:9 0.003
10 resp_msg[12]:10 resp_msg[12]:11 0.0063
11 buffer40:Z resp_msg[12]:2 7.785
12 resp_msg[12] resp_msg[12]:10 0.0027675
*END

*D_NET resp_msg[11] 12.3406
*CONN
*P resp_msg[11] O
*I buffer41:Z O *D BUF_X4
*CAP
1 resp_msg[11]:1 1.945
2 resp_msg[11]:2 4.2
3 resp_msg[11]:3 4.2
4 resp_msg[11]:4 0
5 resp_msg[11]:5 0.0139994
6 resp_msg[11]:6 0.0252989
*RES
1 resp_msg[11]:1 resp_msg[11]:2 0.005
2 resp_msg[11]:2 resp_msg[11]:3 16.8
3 resp_msg[11]:3 resp_msg[11]:4 0.005
4 resp_msg[11]:4 resp_msg[11]:5 0.003
5 resp_msg[11]:5 resp_msg[11]:6 0.0063
6 buffer41:Z resp_msg[11]:1 7.785
7 resp_msg[11] resp_msg[11]:6 0.005085
*END

*D_NET resp_msg[10] 14.3911
*CONN
*P resp_msg[10] O
*I buffer42:Z O *D BUF_X4
*CAP
1 resp_msg[10]:1 6.3
2 resp_msg[10]:2 6.3
3 resp_msg[10]:3 0.875
4 resp_msg[10]:4 0
5 resp_msg[10]:5 0.0205325
6 resp_msg[10]:6 0.0139994
*RES
1 resp_msg[10]:1 resp_msg[10]:2 25.2
2 resp_msg[10]:2 resp_msg[10]:3 0.005
3 resp_msg[10]:1 resp_msg[10]:4 0.005
4 resp_msg[10]:4 resp_msg[10]:4 0.003
5 resp_msg[10]:5 resp_msg[10]:6 0.0063
6 buffer42:Z resp_msg[10]:3 3.505
7 resp_msg[10] resp_msg[10]:5 0.00294
*END

*D_NET resp_msg[9] 13.3708
*CONN
*P resp_msg[9] O
*I buffer43:Z O *D BUF_X4
*CAP
1 resp_msg[9]:1 6.3
2 resp_msg[9]:2 6.545
3 resp_msg[9]:3 0
4 resp_msg[9]:4 0
5 resp_msg[9]:5 0
6 resp_msg[9]:6 0.140392
7 resp_msg[9]:7 0.103175
*RES
1 resp_msg[9]:1 resp_msg[9]:2 25.2
2 resp_msg[9]:1 resp_msg[9]:3 0.005
3 resp_msg[9]:3 resp_msg[9]:4 0.005
4 resp_msg[9]:4 resp_msg[9]:5 0.003
5 resp_msg[9]:5 resp_msg[9]:5 0.003
6 resp_msg[9]:6 resp_msg[9]:7 0.0063
7 buffer43:Z resp_msg[9]:2 0.985
8 resp_msg[9] resp_msg[9]:6 0.0022725
*END

*D_NET resp_msg[8] 15.7883
*CONN
*P resp_msg[8] O
*I buffer44:Z O *D BUF_X4
*CAP
1 resp_msg[8]:1 6.3
2 resp_msg[8]:2 6.3
3 resp_msg[8]:3 1.575