*SPEF "ieee 1481-1999"
*DESIGN "gcd"
*DATE "11:11:11 Fri 11 11, 1111"
*VENDOR "The OpenROAD Project"
*PROGRAM "OpenROAD"
*VERSION "1.0"
*DESIGN_FLOW "NAME_SCOPE LOCAL" "PIN_CAP NONE"
*DIVIDER /
*DELIMITER :
*BUS_DELIMITER []
*T_UNIT 1 NS
*C_UNIT 1 FF
*R_UNIT 1 KOHM
*L_UNIT 1 HENRY

*PORTS
clk I
req_msg[31] I
req_msg[30] I
req_msg[29] I
req_msg[28] I
req_msg[27] I
req_msg[26] I
req_msg[25] I
req_msg[24] I
req_msg[23] I
req_msg[22] I
req_msg[21] I
req_msg[20] I
req_msg[19] I
req_msg[18] I
req_msg[17] I
req_msg[16] I
req_msg[15] I
req_msg[14] I
req_msg[13] I
req_msg[12] I
req_msg[11] I
req_msg[10] I
req_msg[9] I
req_msg[8] I
req_msg[7] I
req_msg[6] I
req_msg[5] I
req_msg[4] I
req_msg[3] I
req_msg[2] I
req_msg[1] I
req_msg[0] I
req_rdy O
req_val I
reset I
resp_msg[15] O
resp_msg[14] O
resp_msg[13] O
resp_msg[12] O
resp_msg[11] O
resp_msg[10] O
resp_msg[9] O
resp_msg[8] O
resp_msg[7] O
resp_msg[6] O
resp_msg[5] O
resp_msg[4] O
resp_msg[3] O
resp_msg[2] O
resp_msg[1] O
resp_msg[0] O
resp_rdy I
resp_val O

*D_NET clk 306.738
*CONN
*P clk I
*I _858_:CK I *D DFF_X1
*I _859_:CK I *D DFF_X1
*I _860_:CK I *D DFF_X1
*I _861_:CK I *D DFF_X1
*I _862_:CK I *D DFF_X1
*I _863_:CK I *D DFF_X1
*I _864_:CK I *D DFF_X1
*I _865_:CK I *D DFF_X1
*I _866_:CK I *D DFF_X1
*I _867_:CK I *D DFF_X1
*I _868_:CK I *D DFF_X1
*I _869_:CK I *D DFF_X1
*I _870_:CK I *D DFF_X1
*I _871_:CK I *D DFF_X1
*I _872_:CK I *D DFF_X1
*I _873_:CK I *D DFF_X1
*I _874_:CK I *D DFF_X1
*I _875_:CK I *D DFF_X1
*I _876_:CK I *D DFF_X1
*I _877_:CK I *D DFF_X1
*I _878_:CK I *D DFF_X1
*I _879_:CK I *D DFF_X1
*I _880_:CK I *D DFF_X1
*I _881_:CK I *D DFF_X1
*I _882_:CK I *D DFF_X1
*I _883_:CK I *D DFF_X1
*I _884_:CK I *D DFF_X1
*I _885_:CK I *D DFF_X1
*I _886_:CK I *D DFF_X1
*I _887_:CK I *D DFF_X1
*I _888_:CK I *D DFF_X1
*I _889_:CK I *D DFF_X1
*I _890_:CK I *D DFF_X1
*I _891_:CK I *D DFF_X1
*I _892_:CK I *D DFF_X1
*CAP
1 clk:1 4.035
2 clk:2 2.85
3 clk:4 2.37
4 clk:7 0.63
5 clk:8 7.125
6 clk:9 2.85
7 clk:10 2.85
8 clk:11 7.665
9 clk:14 0.635
10 clk:15 4.275
11 clk:16 2.85
12 clk:17 0.39
13 clk:20 3.67
14 clk:21 2.23
15 clk:23 0.42007
16 clk:24 0.49217
17 clk:26 5.7
18 clk:27 5.7
19 clk:28 4.275
20 clk:29 2.85
21 clk:30 2.53
22 clk:32 3.37
23 clk:33 4.13
24 clk:36 0.75
25 clk:37 5.7
26 clk:38 4.275
27 clk:39 3.795
28 clk:41 3.155
29 clk:42 4.275
30 clk:44 4.815
31 clk:45 4.275
32 clk:47 5.7
33 clk:48 4.275
34 clk:49 2.19
35 clk:50 1.885
36 clk:53 4.65
37 clk:54 6.89
38 clk:56 2.85
39 clk:57 2.85
40 clk:58 1.425
41 clk:59 1.425
42 clk:61 4.33
43 clk:62 2.15
44 clk:65 0.225
45 clk:66 4.275
46 clk:67 7.125
47 clk:68 1.425
48 clk:70 4.275
49 clk:71 6.64
50 clk:72 1.425
51 clk:74 3.73
52 clk:75 4.275
53 clk:76 5.7
54 clk:77 0.955
55 clk:79 1.425
56 clk:80 0.0267584
57 clk:81 4.275
58 clk:82 1.425
59 clk:83 1.425
60 clk:84 7.125
61 clk:85 7.125
62 clk:86 0.415
63 clk:89 5.7
64 clk:90 4.275
65 clk:91 11.4
66 clk:92 8.55
67 clk:93 1.425
68 clk:94 1.425
69 clk:95 1.425
70 clk:96 0.24
71 clk:99 1.425
72 clk:100 1.425
73 clk:101 1.425
74 clk:102 2.85
75 clk:103 2.85
76 clk:104 1.875
77 clk:106 4.675
78 clk:108 4.275
79 clk:109 1.425
80 clk:110 1.96
81 clk:113 0.33
82 clk:114 1.425
83 clk:115 1.425
84 clk:116 2.85
85 clk:117 3.695
86 clk:119 4.275
87 clk:120 1.425
88 clk:121 0.09
89 clk:123 1.905
*RES
1 clk:1 clk:2 5.7
2 clk:1 clk:3 0.005
3 clk:2 clk:4 5.7
4 clk:4 clk:5 0.005
5 clk:6 clk:7 0.005
6 clk:7 clk:8 0.005
7 clk:8 clk:9 11.4
8 clk:9 clk:10 0.005
9 clk:10 clk:11 11.4
10 clk:11 clk:12 0.005
11 clk:13 clk:14 0.005
12 clk:14 clk:15 0.005
13 clk:15 clk:16 11.4
14 clk:16 clk:17 0.005
15 clk:18 clk:18 0.005
16 clk:19 clk:20 0.005
17 clk:20 clk:21 5.7
18 clk:21 clk:22 0.005
19 clk:23 clk:24 0.02565
20 clk:25 clk:25 0.003
21 clk:25 clk:26 0.003
22 clk:27 clk:26 22.8
23 clk:28 clk:28 0.005
24 clk:29 clk:30 5.7
25 clk:30 clk:31 0.005
26 clk:32 clk:33 11.4
27 clk:34 clk:34 0.005
28 clk:35 clk:36 0.005
29 clk:36 clk:37 0.005
30 clk:37 clk:38 17.1
31 clk:38 clk:39 0.005
32 clk:40 clk:40 0.005
33 clk:41 clk:42 5.7
34 clk:41 clk:43 0.005
35 clk:44 clk:45 11.4
36 clk:46 clk:46 0.005
37 clk:47 clk:48 11.4
38 clk:49 clk:50 5.7
39 clk:50 clk:51 0.005
40 clk:52 clk:52 0.005
41 clk:53 clk:54 11.4
42 clk:55 clk:55 0.005
43 clk:56 clk:57 0.005
44 clk:58 clk:57 5.7
45 clk:58 clk:59 0.005
46 clk:59 clk:41 5.7
47 clk:60 clk:61 0.005
48 clk:62 clk:61 5.7
49 clk:62 clk:63 0.005
50 clk:64 clk:65 0.005
51 clk:65 clk:66 0.005
52 clk:66 clk:67 11.4
53 clk:67 clk:68 0.005
54 clk:69 clk:69 0.005
55 clk:70 clk:71 17.1
56 clk:70 clk:72 0.005
57 clk:72 clk:66 5.7
58 clk:73 clk:74 0.005
59 clk:74 clk:75 0.005
60 clk:75 clk:76 17.1
61 clk:76 clk:77 0.005
62 clk:78 clk:78 0.005
63 clk:45 clk:79 0.005
64 clk:79 clk:15 5.7
65 clk:80 clk:80 0.005
66 clk:11 clk:81 17.1
67 clk:81 clk:82 0.005
68 clk:82 clk:28 5.7
69 clk:83 clk:84 0.005
70 clk:84 clk:85 17.1
71 clk:85 clk:86 0.005
72 clk:87 clk:87 0.005
73 clk:88 clk:33 0.005
74 clk:33 clk:33 0.005
75 clk:89 clk:90 17.1
76 clk:91 clk:91 0.005
77 clk:91 clk:92 28.5
78 clk:76 clk:89 5.7
79 clk:92 clk:93 0.005
80 clk:93 clk:37 5.7
81 clk:48 clk:94 0.005
82 clk:94 clk:95 5.7
83 clk:95 clk:96 0.005
84 clk:97 clk:97 0.005
85 clk:98 clk:49 0.005
86 clk:49 clk:99 0.005
87 clk:99 clk:100 5.7
88 clk:100 clk:47 0.005
89 clk:101 clk:53 5.7
90 clk:101 clk:102 0.005
91 clk:102 clk:103 11.4
92 clk:103 clk:104 0.005
93 clk:105 clk:105 0.005
94 clk:106 clk:91 17.1
95 clk:107 clk:107 0.005
96 clk:61 clk:56 11.4
97 clk:67 clk:108 17.1
98 clk:108 clk:109 0.005
99 clk:110 clk:109 5.7
100 clk:110 clk:111 0.005
101 clk:71 clk:104 5.7
102 clk:112 clk:113 0.005
103 clk:113 clk:114 0.005
104 clk:114 clk:115 5.7
105 clk:115 clk:42 0.005
106 clk:85 clk:116 11.4
107 clk:116 clk:29 0.005
108 clk:45 clk:29 5.7
109 clk:92 clk:44 5.7
110 clk:117 clk:39 11.4
111 clk:118 clk:118 0.005
112 clk:42 clk:74 11.4
113 clk:83 clk:20 5.7
114 clk:48 clk:1 5.7
115 clk:2 clk:119 0.005
116 clk:119 clk:8 17.1
117 clk:28 clk:84 11.4
118 clk:54 clk:47 11.4
119 clk:57 clk:120 5.7
120 clk:120 clk:121 0.005
121 clk:122 clk:122 0.005
122 clk:123 clk:68 5.7
123 clk:123 clk:124 0.005
124 _858_:CK clk:1 4.745
125 _859_:CK clk:4 3.785
126 _860_:CK clk:7 2.525
127 _861_:CK clk:17 1.565
128 _862_:CK clk:80 0.00483143
129 _863_:CK clk:21 3.225
130 _864_:CK clk:30 4.425
131 _865_:CK clk:32 2.085
132 _866_:CK clk:39 3.785
133 _867_:CK clk:106 1.605
134 _868_:CK clk:44 2.165
135 _869_:CK clk:50 1.845
136 _870_:CK clk:54 4.765
137 _871_:CK clk:53 1.505
138 _872_:CK clk:121 0.365
139 _873_:CK clk:62 2.905
140 _874_:CK clk:123 1.925
141 _875_:CK clk:65 0.905
142 _876_:CK clk:74 3.525
143 _877_:CK clk:14 2.545
144 _878_:CK clk:11 2.165
145 _879_:CK clk:20 3.285
146 _880_:CK clk:86 1.665
147 _881_:CK clk:33 5.125
148 _882_:CK clk:117 3.385
149 _883_:CK clk:77 3.825
150 _884_:CK clk:36 3.005
151 _885_:CK clk:96 0.965
152 _886_:CK clk:49 3.065
153 _887_:CK clk:104 1.805
154 _888_:CK clk:41 1.225
155 _889_:CK clk:61 0.225
156 _890_:CK clk:110 2.145
157 _891_:CK clk:71 3.765
158 _892_:CK clk:113 1.325
159 clk clk:24 0.0044025
*END

*D_NET req_msg[31] 19.6395
*CONN
*P req_msg[31] I
*I buffer1:A I *D BUF_X4
*CAP
1 req_msg[31]:2 1.2075
2 req_msg[31]:3 4.275
3 req_msg[31]:4 4.275
4 req_msg[31]:5 4.275
5 req_msg[31]:6 4.275
6 req_msg[31]:8 0.0622736
*RES
1 req_msg[31]:1 req_msg[31]:2 0.005
2 req_msg[31]:2 req_msg[31]:3 0.005
3 req_msg[31]:3 req_msg[31]:4 17.1
4 req_msg[31]:4 req_msg[31]:5 0.005
5 req_msg[31]:5 req_msg[31]:6 17.1
6 req_msg[31]:6 req_msg[31]:7 0.003
7 req_msg[31]:7 req_msg[31]:8 0.003
8 req_msg[31]:8 req_msg[31]:8 0.003
9 buffer1:A req_msg[31]:2 4.835
10 req_msg[31] req_msg[31]:8 0.0038025
*END

*D_NET req_msg[30] 4.92826
*CONN
*P req_msg[30] I
*I buffer2:A I *D BUF_X4
*CAP
1 req_msg[30]:1 0.140023
2 req_msg[30]:2 0.211632
3 req_msg[30]:4 1.425
4 req_msg[30]:5 1.425
5 req_msg[30]:7 0.8275
*RES
1 req_msg[30]:1 req_msg[30]:2 0.00855
2 req_msg[30]:3 req_msg[30]:3 0.003
3 req_msg[30]:3 req_msg[30]:4 0.003
4 req_msg[30]:5 req_msg[30]:4 5.7
5 req_msg[30]:5 req_msg[30]:6 0.005
6 req_msg[30]:7 req_msg[30]:7 0.005
7 req_msg[30]:7 req_msg[30]:8 0.005
8 buffer2:A req_msg[30]:7 3.315
9 req_msg[30] req_msg[30]:2 0.0043725
*END

*D_NET req_msg[29] 7.13448
*CONN
*P req_msg[29] I
*I buffer3:A I *D BUF_X4
*CAP
1 req_msg[29]:1 0.17724
2 req_msg[29]:2 0.140023
3 req_msg[29]:4 2.85
4 req_msg[29]:5 2.85
5 req_msg[29]:7 0.54
*RES
1 req_msg[29]:1 req_msg[29]:2 0.00855
2 req_msg[29]:2 req_msg[29]:3 0.003
3 req_msg[29]:4 req_msg[29]:4 0.003
4 req_msg[29]:4 req_msg[29]:5 11.4
5 req_msg[29]:5 req_msg[29]:6 0.005
6 req_msg[29]:7 req_msg[29]:7 0.005
7 req_msg[29]:7 req_msg[29]:8 0.005
8 buffer3:A req_msg[29]:7 2.165
9 req_msg[29] req_msg[29]:1 0.0022725
*END

*D_NET req_msg[28] 4.22493
*CONN
*P req_msg[28] I
*I buffer4:A I *D BUF_X4
*CAP
1 req_msg[28]:1 0.0274655
2 req_msg[28]:2 0.0189992
3 req_msg[28]:4 1.425
4 req_msg[28]:5 1.425
5 req_msg[28]:6 0.66
*RES
1 req_msg[28]:1 req_msg[28]:2 0.00855
2 req_msg[28]:2 req_msg[28]:3 0.003
3 req_msg[28]:4 req_msg[28]:4 0.005
4 req_msg[28]:4 req_msg[28]:5 5.7
5 req_msg[28]:5 req_msg[28]:6 0.005
6 req_msg[28]:7 req_msg[28]:7 0.005
7 buffer4:A req_msg[28]:6 2.645
8 req_msg[28] req_msg[28]:1 0.00381
*END

*D_NET req_msg[27] 4.33517
*CONN
*P req_msg[27] I
*I buffer5:A I *D BUF_X4
*CAP
1 req_msg[27]:1 0.140023
2 req_msg[27]:2 0.200086
3 req_msg[27]:4 1.425
4 req_msg[27]:5 1.425
5 req_msg[27]:7 0.5425
*RES
1 req_msg[27]:1 req_msg[27]:2 0.00855
2 req_msg[27]:3 req_msg[27]:3 0.003
3 req_msg[27]:3 req_msg[27]:4 0.003
4 req_msg[27]:5 req_msg[27]:4 5.7
5 req_msg[27]:5 req_msg[27]:6 0.005
6 req_msg[27]:7 req_msg[27]:7 0.005
7 req_msg[27]:7 req_msg[27]:8 0.005
8 buffer5:A req_msg[27]:7 2.175
9 req_msg[27] req_msg[27]:2 0.0036675
*END

*D_NET req_msg[26] 7.21087
*CONN
*P req_msg[26] I
*I buffer6:A I *D BUF_X4
*CAP
1 req_msg[26]:1 0.180434
2 req_msg[26]:2 0.140023
3 req_msg[26]:4 2.85
4 req_msg[26]:5 2.85
5 req_msg[26]:7 0.575
*RES
1 req_msg[26]:1 req_msg[26]:2 0.00855
2 req_msg[26]:2 req_msg[26]:3 0.003
3 req_msg[26]:4 req_msg[26]:4 0.003
4 req_msg[26]:4 req_msg[26]:5 11.4
5 req_msg[26]:5 req_msg[26]:6 0.005
6 req_msg[26]:7 req_msg[26]:7 0.005
7 req_msg[26]:7 req_msg[26]:8 0.005
8 buffer6:A req_msg[26]:7 2.305
9 req_msg[26] req_msg[26]:1 0.0024675
*END

*D_NET req_msg[25] 5.53315
*CONN
*P req_msg[25] I
*I buffer7:A I *D BUF_X4
*CAP
1 req_msg[25]:1 0.140023
2 req_msg[25]:2 0.229073
3 req_msg[25]:4 1.425
4 req_msg[25]:5 1.425
5 req_msg[25]:7 1.1125
*RES
1 req_msg[25]:1 req_msg[25]:2 0.00855
2 req_msg[25]:3 req_msg[25]:3 0.003
3 req_msg[25]:3 req_msg[25]:4 0.003
4 req_msg[25]:5 req_msg[25]:4 5.7
5 req_msg[25]:5 req_msg[25]:6 0.005
6 req_msg[25]:7 req_msg[25]:7 0.005
7 req_msg[25]:7 req_msg[25]:8 0.005
8 buffer7:A req_msg[25]:7 4.455
9 req_msg[25] req_msg[25]:2 0.0054375
*END

*D_NET req_msg[24] 7.75666
*CONN
*P req_msg[24] I
*I buffer8:A I *D BUF_X4
*CAP
1 req_msg[24]:2 1
2 req_msg[24]:3 2.85
3 req_msg[24]:4 2.85
4 req_msg[24]:6 0.0189992
5 req_msg[24]:7 0.0283321
*RES
1 req_msg[24]:1 req_msg[24]:2 0.005
2 req_msg[24]:2 req_msg[24]:3 0.005
3 req_msg[24]:3 req_msg[24]:4 11.4
4 req_msg[24]:4 req_msg[24]:5 0.005
5 req_msg[24]:5 req_msg[24]:6 0.003
6 req_msg[24]:6 req_msg[24]:7 0.00855
7 buffer8:A req_msg[24]:2 4.005
8 req_msg[24] req_msg[24]:7 0.0042
*END

*D_NET req_msg[23] 5.32792
*CONN
*P req_msg[23] I
*I buffer9:A I *D BUF_X4
*CAP
1 req_msg[23]:1 0.140023
2 req_msg[23]:2 0.221458
3 req_msg[23]:4 1.425
4 req_msg[23]:5 1.425
5 req_msg[23]:7 1.0175
*RES
1 req_msg[23]:1 req_msg[23]:2 0.00855
2 req_msg[23]:3 req_msg[23]:3 0.003
3 req_msg[23]:3 req_msg[23]:4 0.003
4 req_msg[23]:5 req_msg[23]:4 5.7
5 req_msg[23]:5 req_msg[23]:6 0.005
6 req_msg[23]:7 req_msg[23]:7 0.005
7 req_msg[23]:7 req_msg[23]:8 0.005
8 buffer9:A req_msg[23]:7 4.075
9 req_msg[23] req_msg[23]:2 0.0049725
*END

*D_NET req_msg[22] 24.8435
*CONN
*P req_msg[22] I
*I buffer10:A I *D BUF_X4
*CAP
1 req_msg[22]:2 1.015
2 req_msg[22]:3 7.125
3 req_msg[22]:4 7.125
4 req_msg[22]:5 4.275
5 req_msg[22]:6 4.275
6 req_msg[22]:7 0.00673304
*RES
1 req_msg[22]:1 req_msg[22]:2 0.005
2 req_msg[22]:2 req_msg[22]:3 0.005
3 req_msg[22]:3 req_msg[22]:4 28.5
4 req_msg[22]:4 req_msg[22]:4 0.005
5 req_msg[22]:5 req_msg[22]:6 17.1
6 req_msg[22]:5 req_msg[22]:7 0.003
7 req_msg[22]:7 req_msg[22]:7 0.003
8 buffer10:A req_msg[22]:2 4.065
9 req_msg[22] req_msg[22]:7 0.00303
*END

*D_NET req_msg[21] 7.07973
*CONN
*P req_msg[21] I
*I buffer11:A I *D BUF_X4
*CAP
1 req_msg[21]:2 0.6625
2 req_msg[21]:3 2.85
3 req_msg[21]:4 2.85
4 req_msg[21]:6 0.0189992
5 req_msg[21]:7 0.0273655
*RES
1 req_msg[21]:1 req_msg[21]:2 0.005
2 req_msg[21]:2 req_msg[21]:3 0.005
3 req_msg[21]:3 req_msg[21]:4 11.4
4 req_msg[21]:4 req_msg[21]:5 0.005
5 req_msg[21]:5 req_msg[21]:6 0.003
6 req_msg[21]:6 req_msg[21]:7 0.00855
7 buffer11:A req_msg[21]:2 2.655
8 req_msg[21] req_msg[21]:7 0.003765
*END

*D_NET req_msg[20] 7.44361
*CONN
*P req_msg[20] I
*I buffer12:A I *D BUF_X4
*CAP
1 req_msg[20]:1 0.201806
2 req_msg[20]:2 0.140023
3 req_msg[20]:4 2.85
4 req_msg[20]:5 2.85
5 req_msg[20]:7 0.67
*RES
1 req_msg[20]:1 req_msg[20]:2 0.00855
2 req_msg[20]:2 req_msg[20]:3 0.003
3 req_msg[20]:4 req_msg[20]:4 0.003
4 req_msg[20]:4 req_msg[20]:5 11.4
5 req_msg[20]:5 req_msg[20]:6 0.005
6 req_msg[20]:7 req_msg[20]:7 0.005
7 req_msg[20]:7 req_msg[20]:8 0.005
8 buffer12:A req_msg[20]:7 2.685
9 req_msg[20] req_msg[20]:1 0.0037725
*END

*D_NET req_msg[19] 4.45959
*CONN
*P req_msg[19] I
*I buffer13:A I *D BUF_X4
*CAP
1 req_msg[19]:1 0.140023
2 req_msg[19]:2 0.202297
3 req_msg[19]:4 1.425
4 req_msg[19]:5 1.425
5 req_msg[19]:7 0.6025
*RES
1 req_msg[19]:1 req_msg[19]:2 0.00855
2 req_msg[19]:3 req_msg[19]:3 0.003
3 req_msg[19]:3 req_msg[19]:4 0.003
4 req_msg[19]:5 req_msg[19]:4 5.7
5 req_msg[19]:5 req_msg[19]:6 0.005
6 req_msg[19]:7 req_msg[19]:7 0.005
7 req_msg[19]:7 req_msg[19]:8 0.005
8 buffer13:A req_msg[19]:7 2.415
9 req_msg[19] req_msg[19]:2 0.0038025
*END

*D_NET req_msg[18] 4.65402
*CONN
*P req_msg[18] I
*I buffer14:A I *D BUF_X4
*CAP
1 req_msg[18]:1 0.140023
2 req_msg[18]:2 0.204508
3 req_msg[18]:4 1.425
4 req_msg[18]:5 1.425
5 req_msg[18]:7 0.6975
*RES
1 req_msg[18]:1 req_msg[18]:2 0.00855
2 req_msg[18]:3 req_msg[18]:3 0.003
3 req_msg[18]:3 req_msg[18]:4 0.003
4 req_msg[18]:5 req_msg[18]:4 5.7
5 req_msg[18]:5 req_msg[18]:6 0.005
6 req_msg[18]:7 req_msg[18]:7 0.005
7 req_msg[18]:7 req_msg[18]:8 0.005
8 buffer14:A req_msg[18]:7 2.795
9 req_msg[18] req_msg[18]:2 0.0039375
*END

*D_NET req_msg[17] 6.67706
*CONN
*P req_msg[17] I
*I buffer15:A I *D BUF_X4
*CAP
1 req_msg[17]:2 0.4625
2 req_msg[17]:3 2.85
3 req_msg[17]:4 2.85
4 req_msg[17]:6 0.0189992
5 req_msg[17]:7 0.0260322
*RES
1 req_msg[17]:1 req_msg[17]:2 0.005
2 req_msg[17]:2 req_msg[17]:3 0.005
3 req_msg[17]:3 req_msg[17]:4 11.4
4 req_msg[17]:4 req_msg[17]:5 0.005
5 req_msg[17]:5 req_msg[17]:6 0.003
6 req_msg[17]:6 req_msg[17]:7 0.00855
7 buffer15:A req_msg[17]:2 1.855
8 req_msg[17] req_msg[17]:7 0.003165
*END

*D_NET req_msg[16] 4.73482
*CONN
*P req_msg[16] I
*I buffer16:A I *D BUF_X4
*CAP
1 req_msg[16]:1 0.140023
2 req_msg[16]:2 0.209912
3 req_msg[16]:4 1.425
4 req_msg[16]:5 1.425
5 req_msg[16]:7 0.7325
*RES
1 req_msg[16]:1 req_msg[16]:2 0.00855
2 req_msg[16]:3 req_msg[16]:3 0.003
3 req_msg[16]:3 req_msg[16]:4 0.003
4 req_msg[16]:5 req_msg[16]:4 5.7
5 req_msg[16]:5 req_msg[16]:6 0.005
6 req_msg[16]:7 req_msg[16]:7 0.005
7 req_msg[16]:7 req_msg[16]:8 0.005
8 buffer16:A req_msg[16]:7 2.935
9 req_msg[16] req_msg[16]:2 0.0042675
*END

*D_NET req_msg[15] 7.14047
*CONN
*P req_msg[15] I
*I buffer17:A I *D BUF_X4
*CAP
1 req_msg[15]:1 0.0700117
2 req_msg[15]:2 0.149236
3 req_msg[15]:3 0.0284988
4 req_msg[15]:4 0.0284988
5 req_msg[15]:7 2.85
6 req_msg[15]:8 3.3925
*RES
1 req_msg[15]:1 req_msg[15]:2 0.004275
2 req_msg[15]:1 req_msg[15]:3 0.003
3 req_msg[15]:3 req_msg[15]:4 0.012825
4 req_msg[15]:4 req_msg[15]:5 0.003
5 req_msg[15]:6 req_msg[15]:6 0.005
6 req_msg[15]:6 req_msg[15]:7 0.005
7 req_msg[15]:8 req_msg[15]:7 11.4
8 req_msg[15]:9 req_msg[15]:9 0.005
9 buffer17:A req_msg[15]:8 2.175
10 req_msg[15] req_msg[15]:2 0.0048375
*END

*D_NET req_msg[14] 7.53413
*CONN
*P req_msg[14] I
*I buffer18:A I *D BUF_X4
*CAP
1 req_msg[14]:1 0.187066
2 req_msg[14]:2 0.140023
3 req_msg[14]:4 2.85
4 req_msg[14]:5 2.85
5 req_msg[14]:7 0.73
*RES
1 req_msg[14]:1 req_msg[14]:2 0.00855
2 req_msg[14]:2 req_msg[14]:3 0.003
3 req_msg[14]:4 req_msg[14]:4 0.003
4 req_msg[14]:4 req_msg[14]:5 11.4
5 req_msg[14]:5 req_msg[14]:6 0.005
6 req_msg[14]:7 req_msg[14]:7 0.005
7 req_msg[14]:7 req_msg[14]:8 0.005
8 buffer18:A req_msg[14]:7 2.925
9 req_msg[14] req_msg[14]:1 0.0028725
*END

*D_NET req_msg[13] 8.33246
*CONN
*P req_msg[13] I
*I buffer19:A I *D BUF_X4
*CAP
1 req_msg[13]:1 0.206228
2 req_msg[13]:2 0.140023
3 req_msg[13]:4 2.85
4 req_msg[13]:5 2.85
5 req_msg[13]:7 1.11
*RES
1 req_msg[13]:1 req_msg[13]:2 0.00855
2 req_msg[13]:2 req_msg[13]:3 0.003
3 req_msg[13]:4 req_msg[13]:4 0.003
4 req_msg[13]:4 req_msg[13]:5 11.4
5 req_msg[13]:5 req_msg[13]:6 0.005
6 req_msg[13]:7 req_msg[13]:7 0.005
7 req_msg[13]:7 req_msg[13]:8 0.005
8 buffer19:A req_msg[13]:7 4.445
9 req_msg[13] req_msg[13]:1 0.0040425
*END

*D_NET req_msg[12] 7.4824
*CONN
*P req_msg[12] I
*I buffer20:A I *D BUF_X4
*CAP
1 req_msg[12]:2 0.8625
2 req_msg[12]:3 2.85
3 req_msg[12]:4 2.85
4 req_msg[12]:6 0.0189992
5 req_msg[12]:7 0.0286988
*RES
1 req_msg[12]:1 req_msg[12]:2 0.005
2 req_msg[12]:2 req_msg[12]:3 0.005
3 req_msg[12]:3 req_msg[12]:4 11.4
4 req_msg[12]:4 req_msg[12]:5 0.005
5 req_msg[12]:5 req_msg[12]:6 0.003
6 req_msg[12]:6 req_msg[12]:7 0.00855
7 buffer20:A req_msg[12]:2 3.455
8 req_msg[12] req_msg[12]:7 0.004365
*END

*D_NET req_msg[11] 7.61052
*CONN
*P req_msg[11] I
*I buffer21:A I *D BUF_X4
*CAP
1 req_msg[11]:1 0.19026
2 req_msg[11]:2 0.140023
3 req_msg[11]:4 2.85
4 req_msg[11]:5 2.85
5 req_msg[11]:7 0.765
*RES
1 req_msg[11]:1 req_msg[11]:2 0.00855
2 req_msg[11]:2 req_msg[11]:3 0.003
3 req_msg[11]:4 req_msg[11]:4 0.003
4 req_msg[11]:4 req_msg[11]:5 11.4
5 req_msg[11]:5 req_msg[11]:6 0.005
6 req_msg[11]:7 req_msg[11]:7 0.005
7 req_msg[11]:7 req_msg[11]:8 0.005
8 buffer21:A req_msg[11]:7 3.065
9 req_msg[11] req_msg[11]:1 0.0030675
*END

*D_NET req_msg[10] 5.72757
*CONN
*P req_msg[10] I
*I buffer22:A I *D BUF_X4
*CAP
1 req_msg[10]:1 0.140023
2 req_msg[10]:2 0.231284
3 req_msg[10]:4 1.425
4 req_msg[10]:5 1.425
5 req_msg[10]:7 1.2075
*RES
1 req_msg[10]:1 req_msg[10]:2 0.00855
2 req_msg[10]:3 req_msg[10]:3 0.003
3 req_msg[10]:3 req_msg[10]:4 0.003
4 req_msg[10]:5 req_msg[10]:4 5.7
5 req_msg[10]:5 req_msg[10]:6 0.005
6 req_msg[10]:7 req_msg[10]:7 0.005
7 req_msg[10]:7 req_msg[10]:8 0.005
8 buffer22:A req_msg[10]:7 4.835
9 req_msg[10] req_msg[10]:2 0.0055725
*END

*D_NET req_msg[9] 7.4764
*CONN
*P req_msg[9] I
*I buffer23:A I *D BUF_X4
*CAP
1 req_msg[9]:1 0.0281988
2 req_msg[9]:2 0.0189992
3 req_msg[9]:4 1.425
4 req_msg[9]:5 1.425
5 req_msg[9]:6 1.425
6 req_msg[9]:7 2.285
*RES
1 req_msg[9]:1 req_msg[9]:2 0.00855
2 req_msg[9]:2 req_msg[9]:3 0.003
3 req_msg[9]:4 req_msg[9]:4 0.005
4 req_msg[9]:4 req_msg[9]:5 5.7
5 req_msg[9]:5 req_msg[9]:6 0.005
6 req_msg[9]:6 req_msg[9]:7 5.7
7 req_msg[9]:7 req_msg[9]:8 0.005
8 buffer23:A req_msg[9]:7 3.445
9 req_msg[9] req_msg[9]:1 0.00414
*END

*D_NET req_msg[8] 10.4437
*CONN
*P req_msg[8] I
*I buffer24:A I *D BUF_X4
*CAP
1 req_msg[8]:1 0.140023
2 req_msg[8]:2 0.214334
3 req_msg[8]:5 2.85
4 req_msg[8]:6 2.85
5 req_msg[8]:7 1.425
6 req_msg[8]:8 2.1575
*RES
1 req_msg[8]:1 req_msg[8]:2 0.00855
2 req_msg[8]:3 req_msg[8]:3 0.003
3 req_msg[8]:3 req_msg[8]:4 0.003
4 req_msg[8]:5 req_msg[8]:5 0.005
5 req_msg[8]:5 req_msg[8]:6 11.4
6 req_msg[8]:6 req_msg[8]:7 0.005
7 req_msg[8]:8 req_msg[8]:7 5.7
8 req_msg[8]:8 req_msg[8]:9 0.005
9 buffer24:A req_msg[8]:8 2.935
10 req_msg[8] req_msg[8]:2 0.0045375
*END

*D_NET req_msg[7] 7.19926
*CONN
*P req_msg[7] I
*I buffer25:A I *D BUF_X4
*CAP
1 req_msg[7]:2 0.725
2 req_msg[7]:3 2.85
3 req_msg[7]:4 2.85
4 req_msg[7]:6 0.0189992
5 req_msg[7]:7 0.0246323
*RES
1 req_msg[7]:1 req_msg[7]:2 0.005
2 req_msg[7]:2 req_msg[7]:3 0.005
3 req_msg[7]:3 req_msg[7]:4 11.4
4 req_msg[7]:4 req_msg[7]:5 0.005
5 req_msg[7]:5 req_msg[7]:6 0.003
6 req_msg[7]:6 req_msg[7]:7 0.00855
7 buffer25:A req_msg[7]:2 2.905
8 req_msg[7] req_msg[7]:7 0.002535
*END

*D_NET req_msg[6] 3.24413
*CONN
*P req_msg[6] I
*I buffer26:A I *D BUF_X4
*CAP
1 req_msg[6]:1 0.0245656
2 req_msg[6]:2 0.0189992
3 req_msg[6]:4 1.425
4 req_msg[6]:5 1.425
5 req_msg[6]:6 0.1725
*RES
1 req_msg[6]:1 req_msg[6]:2 0.00855
2 req_msg[6]:2 req_msg[6]:3 0.003
3 req_msg[6]:4 req_msg[6]:4 0.005
4 req_msg[6]:4 req_msg[6]:5 5.7
5 req_msg[6]:5 req_msg[6]:6 0.005
6 req_msg[6]:7 req_msg[6]:7 0.005
7 buffer26:A req_msg[6]:6 0.695
8 req_msg[6] req_msg[6]:1 0.002505
*END

*D_NET req_msg[5] 16.0739
*CONN
*P req_msg[5] I
*I buffer27:A I *D BUF_X4
*CAP
1 req_msg[5]:2 7.125
2 req_msg[5]:3 7.975
3 req_msg[5]:6 0.00949959
4 req_msg[5]:7 0.00949959
5 req_msg[5]:8 0.0524474
*RES
1 req_msg[5]:1 req_msg[5]:1 0.005
2 req_msg[5]:2 req_msg[5]:3 28.5
3 req_msg[5]:2 req_msg[5]:4 0.005
4 req_msg[5]:4 req_msg[5]:5 0.005
5 req_msg[5]:5 req_msg[5]:6 0.003
6 req_msg[5]:6 req_msg[5]:7 0.004275
7 req_msg[5]:7 req_msg[5]:8 0.003
8 req_msg[5]:8 req_msg[5]:8 0.003
9 buffer27:A req_msg[5]:3 3.405
10 req_msg[5] req_msg[5]:8 0.0032025
*END

*D_NET req_msg[4] 7.60193
*CONN
*P req_msg[4] I
*I buffer28:A I *D BUF_X4
*CAP
1 req_msg[4]:2 0.925
2 req_msg[4]:3 2.85
3 req_msg[4]:4 2.85
4 req_msg[4]:6 0.0189992
5 req_msg[4]:7 0.0259656
*RES
1 req_msg[4]:1 req_msg[4]:2 0.005
2 req_msg[4]:2 req_msg[4]:3 0.005
3 req_msg[4]:3 req_msg[4]:4 11.4
4 req_msg[4]:4 req_msg[4]:5 0.005
5 req_msg[4]:5 req_msg[4]:6 0.003
6 req_msg[4]:6 req_msg[4]:7 0.00855
7 buffer28:A req_msg[4]:2 3.705
8 req_msg[4] req_msg[4]:7 0.003135
*END

*D_NET req_msg[3] 12.3344
*CONN
*P req_msg[3] I
*I buffer29:A I *D BUF_X4
*CAP
1 req_msg[3]:1 1.425
2 req_msg[3]:2 0.00719969
3 req_msg[3]:3 1.425
4 req_msg[3]:4 4.275
5 req_msg[3]:5 4.275
6 req_msg[3]:6 0.46
*RES
1 req_msg[3]:1 req_msg[3]:2 0.003
2 req_msg[3]:2 req_msg[3]:2 0.003
3 req_msg[3]:3 req_msg[3]:1 5.7
4 req_msg[3]:3 req_msg[3]:4 0.005
5 req_msg[3]:4 req_msg[3]:5 17.1
6 req_msg[3]:5 req_msg[3]:6 0.005
7 req_msg[3]:7 req_msg[3]:7 0.005
8 buffer29:A req_msg[3]:6 1.845
9 req_msg[3] req_msg[3]:2 0.00324
*END

*D_NET req_msg[2] 7.14931
*CONN
*P req_msg[2] I
*I buffer30:A I *D BUF_X4
*CAP
1 req_msg[2]:2 3.3925
2 req_msg[2]:3 2.85
3 req_msg[2]:6 0.0284988
4 req_msg[2]:7 0.0284988
5 req_msg[2]:8 0.0700117
6 req_msg[2]:9 0.153657
*RES
1 req_msg[2]:1 req_msg[2]:2 0.005
2 req_msg[2]:2 req_msg[2]:3 11.4
3 req_msg[2]:3 req_msg[2]:4 0.005
4 req_msg[2]:4 req_msg[2]:5 0.005
5 req_msg[2]:5 req_msg[2]:6 0.003
6 req_msg[2]:6 req_msg[2]:7 0.012825
7 req_msg[2]:7 req_msg[2]:8 0.003
8 req_msg[2]:8 req_msg[2]:9 0.004275
9 buffer30:A req_msg[2]:2 2.175
10 req_msg[2] req_msg[2]:9 0.0051075
*END

*D_NET req_msg[1] 8.41326
*CONN
*P req_msg[1] I
*I buffer31:A I *D BUF_X4
*CAP
1 req_msg[1]:1 0.211632
2 req_msg[1]:2 0.140023
3 req_msg[1]:4 2.85
4 req_msg[1]:5 2.85
5 req_msg[1]:7 1.145
*RES
1 req_msg[1]:1 req_msg[1]:2 0.00855
2 req_msg[1]:2 req_msg[1]:3 0.003
3 req_msg[1]:4 req_msg[1]:4 0.003
4 req_msg[1]:4 req_msg[1]:5 11.4
5 req_msg[1]:5 req_msg[1]:6 0.005
6 req_msg[1]:7 req_msg[1]:7 0.005
7 req_msg[1]:7 req_msg[1]:8 0.005
8 buffer31:A req_msg[1]:7 4.585
9 req_msg[1] req_msg[1]:1 0.0043725
*END

*D_NET req_msg[0] 7.354
*CONN
*P req_msg[0] I
*I buffer32:A I *D BUF_X4
*CAP
1 req_msg[0]:2 0.8
2 req_msg[0]:3 2.85
3 req_msg[0]:4 2.85
4 req_msg[0]:6 0.0189992
5 req_msg[0]:7 0.0269988
*RES
1 req_msg[0]:1 req_msg[0]:2 0.005
2 req_msg[0]:2 req_msg[0]:3 0.005
3 req_msg[0]:3 req_msg[0]:4 11.4
4 req_msg[0]:4 req_msg[0]:5 0.005
5 req_msg[0]:5 req_msg[0]:6 0.003
6 req_msg[0]:6 req_msg[0]:7 0.00855
7 buffer32:A req_msg[0]:2 3.205
8 req_msg[0] req_msg[0]:7 0.0036
*END

*D_NET req_rdy 5.84086
*CONN
*P req_rdy O
*I buffer36:Z O *D BUF_X4
*CAP
1 req_rdy:1 0.279433
2 req_rdy:2 0.210035
3 req_rdy:3 0.0284988
4 req_rdy:4 0.0284988
5 req_rdy:7 1.425
6 req_rdy:8 2.6125
*RES
1 req_rdy:1 req_rdy:2 0.012825
2 req_rdy:2 req_rdy:3 0.003
3 req_rdy:3 req_rdy:4 0.012825
4 req_rdy:4 req_rdy:5 0.003
5 req_rdy:6 req_rdy:6 0.005
6 req_rdy:6 req_rdy:7 0.005
7 req_rdy:7 req_rdy:8 5.7
8 req_rdy:8 req_rdy:9 0.005
9 buffer36:Z req_rdy:8 4.755
10 req_rdy req_rdy:1 0.0042375
*END

*D_NET req_val 13.6063
*CONN
*P req_val I
*I buffer33:A I *D BUF_X4
*CAP
1 req_val:2 1.0775
2 req_val:3 4.275
3 req_val:4 4.275
4 req_val:5 1.425
5 req_val:6 1.425
6 req_val:7 0.0189992
7 req_val:8 0.0256656
*RES
1 req_val:1 req_val:2 0.005
2 req_val:2 req_val:3 0.005
3 req_val:3 req_val:4 17.1
4 req_val:4 req_val:5 0.005
5 req_val:5 req_val:6 5.7
6 req_val:6 req_val:7 0.003
7 req_val:7 req_val:8 0.00855
8 buffer33:A req_val:2 4.315
9 req_val req_val:8 0.003
*END

*D_NET reset 3.6468
*CONN
*P reset I
*I buffer34:A I *D BUF_X4
*CAP
1 reset:1 0.0258989
2 reset:2 0.0189992
3 reset:4 1.425
4 reset:5 1.425
5 reset:6 0.3725
*RES
1 reset:1 reset:2 0.00855
2 reset:2 reset:3 0.003
3 reset:4 reset:4 0.005
4 reset:4 reset:5 5.7
5 reset:5 reset:6 0.005
6 reset:7 reset:7 0.005
7 buffer34:A reset:6 1.495
8 reset reset:1 0.003105
*END

*D_NET resp_msg[15] 9.8839
*CONN
*P resp_msg[15] O
*I buffer37:Z O *D BUF_X4
*CAP
1 resp_msg[15]:1 0.179451
2 resp_msg[15]:2 0.140023
3 resp_msg[15]:5 1.425
4 resp_msg[15]:6 1.425
5 resp_msg[15]:7 2.85
6 resp_msg[15]:8 3.3375
*RES
1 resp_msg[15]:1 resp_msg[15]:2 0.00855
2 resp_msg[15]:2 resp_msg[15]:3 0.003
3 resp_msg[15]:4 resp_msg[15]:4 0.003
4 resp_msg[15]:4 resp_msg[15]:5 0.005
5 resp_msg[15]:5 resp_msg[15]:6 5.7
6 resp_msg[15]:6 resp_msg[15]:7 0.005
7 resp_msg[15]:7 resp_msg[15]:8 11.4
8 resp_msg[15]:8 resp_msg[15]:9 0.005
9 buffer37:Z resp_msg[15]:8 1.955
10 resp_msg[15] resp_msg[15]:1 0.0024075
*END

*D_NET resp_msg[14] 13.2902
*CONN
*P resp_msg[14] O
*I buffer38:Z O *D BUF_X4
*CAP
1 resp_msg[14]:2 5.7
2 resp_msg[14]:3 6.6025
3 resp_msg[14]:7 0.0426212
*RES
1 resp_msg[14]:1 resp_msg[14]:1 0.005
2 resp_msg[14]:2 resp_msg[14]:3 22.8
3 resp_msg[14]:2 resp_msg[14]:4 0.005
4 resp_msg[14]:4 resp_msg[14]:5 0.005
5 resp_msg[14]:5 resp_msg[14]:6 0.003
6 resp_msg[14]:6 resp_msg[14]:7 0.003
7 resp_msg[14]:7 resp_msg[14]:7 0.003
8 buffer38:Z resp_msg[14]:3 3.615
9 resp_msg[14] resp_msg[14]:7 0.0026025
*END

*D_NET resp_msg[13] 14.4643
*CONN
*P resp_msg[13] O
*I buffer39:Z O *D BUF_X4
*CAP
1 resp_msg[13]:2 2.9475
2 resp_msg[13]:3 1.425
3 resp_msg[13]:4 4.275
4 resp_msg[13]:5 4.275
5 resp_msg[13]:7 0.00963292
*RES
1 resp_msg[13]:1 resp_msg[13]:2 0.005
2 resp_msg[13]:3 resp_msg[13]:2 5.7
3 resp_msg[13]:3 resp_msg[13]:4 0.005
4 resp_msg[13]:4 resp_msg[13]:5 17.1
5 resp_msg[13]:5 resp_msg[13]:6 0.005
6 resp_msg[13]:6 resp_msg[13]:7 0.003
7 resp_msg[13]:7 resp_msg[13]:7 0.003
8 buffer39:Z resp_msg[13]:2 6.095
9 resp_msg[13] resp_msg[13]:7 0.004335
*END

*D_NET resp_msg[12] 16.1478
*CONN
*P resp_msg[12] O
*I buffer40:Z O *D BUF_X4
*CAP
1 resp_msg[12]:2 4.275
2 resp_msg[12]:3 5.0975
3 resp_msg[12]:4 2.85
4 resp_msg[12]:5 2.85
5 resp_msg[12]:8 0.0700117
6 resp_msg[12]:9 0.12639
*RES
1 resp_msg[12]:1 resp_msg[12]:1 0.005
2 resp_msg[12]:2 resp_msg[12]:3 17.1
3 resp_msg[12]:2 resp_msg[12]:4 0.005
4 resp_msg[12]:4 resp_msg[12]:5 11.4
5 resp_msg[12]:5 resp_msg[12]:6 0.005
6 resp_msg[12]:6 resp_msg[12]:7 0.003
7 resp_msg[12]:7 resp_msg[12]:8 0.003
8 resp_msg[12]:9 resp_msg[12]:8 0.004275
9 buffer40:Z resp_msg[12]:3 3.295
10 resp_msg[12] resp_msg[12]:9 0.0034425
*END

*D_NET resp_msg[11] 14.8616
*CONN
*P resp_msg[11] O
*I buffer41:Z O *D BUF_X4
*CAP
1 resp_msg[11]:2 3.1475
2 resp_msg[11]:3 1.425
3 resp_msg[11]:4 4.275
4 resp_msg[11]:5 4.275
5 resp_msg[11]:7 0.00829964
*RES
1 resp_msg[11]:1 resp_msg[11]:2 0.005
2 resp_msg[11]:3 resp_msg[11]:2 5.7
3 resp_msg[11]:3 resp_msg[11]:4 0.005
4 resp_msg[11]:4 resp_msg[11]:5 17.1
5 resp_msg[11]:5 resp_msg[11]:6 0.005
6 resp_msg[11]:6 resp_msg[11]:7 0.003
7 resp_msg[11]:7 resp_msg[11]:7 0.003
8 buffer41:Z resp_msg[11]:2 6.895
9 resp_msg[11] resp_msg[11]:7 0.003735
*END

*D_NET resp_msg[10] 4.57293
*CONN
*P resp_msg[10] O
*I buffer42:Z O *D BUF_X4
*CAP
1 resp_msg[10]:1 0.0239656
2 resp_msg[10]:2 0.0189992
3 resp_msg[10]:4 1.425
4 resp_msg[10]:5 1.425
5 resp_msg[10]:6 0.8375
*RES
1 resp_msg[10]:1 resp_msg[10]:2 0.00855
2 resp_msg[10]:2 resp_msg[10]:3 0.003
3 resp_msg[10]:4 resp_msg[10]:4 0.005
4 resp_msg[10]:4 resp_msg[10]:5 5.7
5 resp_msg[10]:5 resp_msg[10]:6 0.005
6 resp_msg[10]:7 resp_msg[10]:7 0.005
7 buffer42:Z resp_msg[10]:6 3.355
8 resp_msg[10] resp_msg[10]:1 0.002235
*END

*D_NET resp_msg[9] 11.8022
*CONN
*P resp_msg[9] O
*I buffer43:Z O *D BUF_X4
*CAP
1 resp_msg[9]:1 0.198612
2 resp_msg[9]:2 0.140023
3 resp_msg[9]:5 1.425
4 resp_msg[9]:6 1.425
5 resp_msg[9]:7 2.85
6 resp_msg[9]:8 4.2775
*RES
1 resp_msg[9]:1 resp_msg[9]:2 0.00855
2 resp_msg[9]:2 resp_msg[9]:3 0.003
3 resp_msg[9]:4 resp_msg[9]:4 0.003
4 resp_msg[9]:4 resp_msg[9]:5 0.005
5 resp_msg[9]:5 resp_msg[9]:6 5.7
6 resp_msg[9]:6 resp_msg[9]:7 0.005
7 resp_msg[9]:7 resp_msg[9]:8 11.4
8 resp_msg[9]:8 resp_msg[9]:9 0.005
9 buffer43:Z resp_msg[9]:8 5.715
10 resp_msg[9] resp_msg[9]:1 0.0035775
*END

*D_NET resp_msg[8] 4.32873
*CONN
*P resp_msg[8] O
*I buffer44:Z O *D BUF_X4
*CAP
1 resp_msg[8]:1 0.0268655
2 resp_msg[8]:2 0.0189992
3 resp_msg[8]:4 1.425
4 resp_msg[8]:5 1.425
5 resp_msg[8]:6 0.7125
*RES
1 resp_msg[8]:1 resp_msg[8]:2 0.00855
2 resp_msg[8]:2 resp_msg[8]:3 0.003
3 resp_msg[8]:4 resp_msg[8]:4 0.005
4 resp_msg[8]:4 resp_msg[8]:5 5.7
5 resp_msg[8]:5 resp_msg[8]:6 0.005
6 resp_msg[8]:7 resp_msg[8]:7 0.005
7 buffer44:Z resp_msg[8]:6 2.855
8 resp_msg[8] resp_msg[8]:1 0.00354
*END

*D_NET resp_msg[7] 20.2775
*CONN
*P resp_msg[7] O
*I buffer45:Z O *D BUF_X4
*CAP
1 resp_msg[7]:2 1.4975
2 resp_msg[7]:3 4.275
3 resp_msg[7]:4 4.275
4 resp_msg[7]:5 4.275
5 resp_msg[7]:6 4.275
6 resp_msg[7]:8 0.0912609
*RES
1 resp_msg[7]:1 resp_msg[7]:2 0.005
2 resp_msg[7]:2 resp_msg[7]:3 0.005
3 resp_msg[7]:3 resp_msg[7]:4 17.1
4 resp_msg[7]:4 resp_msg[7]:5 0.005
5 resp_msg[7]:5 resp_msg[7]:6 17.1
6 resp_msg[7]:6 resp_msg[7]:7 0.003