*SPEF "ieee 1481-1999"
*DESIGN "gcd"
*DATE "11:11:11 Fri 11 11, 1111"
*VENDOR "The OpenROAD Project"
*PROGRAM "OpenROAD"
*VERSION "1.0"
*DESIGN_FLOW "NAME_SCOPE LOCAL" "PIN_CAP NONE"
*DIVIDER /
*DELIMITER :
*BUS_DELIMITER []
*T_UNIT 1 NS
*C_UNIT 1 FF
*R_UNIT 1 KOHM
*L_UNIT 1 HENRY

*PORTS
clk I
req_msg[31] I
req_msg[30] I
req_msg[29] I
req_msg[28] I
req_msg[27] I
req_msg[26] I
req_msg[25] I
req_msg[24] I
req_msg[23] I
req_msg[22] I
req_msg[21] I
req_msg[20] I
req_msg[19] I
req_msg[18] I
req_msg[17] I
req_msg[16] I
req_msg[15] I
req_msg[14] I
req_msg[13] I
req_msg[12] I
req_msg[11] I
req_msg[10] I
req_msg[9] I
req_msg[8] I
req_msg[7] I
req_msg[6] I
req_msg[5] I
req_msg[4] I
req_msg[3] I
req_msg[2] I
req_msg[1] I
req_msg[0] I
req_rdy O
req_val I
reset I
resp_msg[15] O
resp_msg[14] O
resp_msg[13] O
resp_msg[12] O
resp_msg[11] O
resp_msg[10] O
resp_msg[9] O
resp_msg[8] O
resp_msg[7] O
resp_msg[6] O
resp_msg[5] O
resp_msg[4] O
resp_msg[3] O
resp_msg[2] O
resp_msg[1] O
resp_msg[0] O
resp_rdy I
resp_val O

*D_NET clk 612.437
*CONN
*P clk I
*I _858_:CK I *D DFF_X1
*I _859_:CK I *D DFF_X1
*I _860_:CK I *D DFF_X1
*I _861_:CK I *D DFF_X1
*I _862_:CK I *D DFF_X1
*I _863_:CK I *D DFF_X1
*I _864_:CK I *D DFF_X1
*I _865_:CK I *D DFF_X1
*I _866_:CK I *D DFF_X1
*I _867_:CK I *D DFF_X1
*I _868_:CK I *D DFF_X1
*I _869_:CK I *D DFF_X1
*I _870_:CK I *D DFF_X1
*I _871_:CK I *D DFF_X1
*I _872_:CK I *D DFF_X1
*I _873_:CK I *D DFF_X1
*I _874_:CK I *D DFF_X1
*I _875_:CK I *D DFF_X1
*I _876_:CK I *D DFF_X1
*I _877_:CK I *D DFF_X1
*I _878_:CK I *D DFF_X1
*I _879_:CK I *D DFF_X1
*I _880_:CK I *D DFF_X1
*I _881_:CK I *D DFF_X1
*I _882_:CK I *D DFF_X1
*I _883_:CK I *D DFF_X1
*I _884_:CK I *D DFF_X1
*I _885_:CK I *D DFF_X1
*I _886_:CK I *D DFF_X1
*I _887_:CK I *D DFF_X1
*I _888_:CK I *D DFF_X1
*I _889_:CK I *D DFF_X1
*I _890_:CK I *D DFF_X1
*I _891_:CK I *D DFF_X1
*I _892_:CK I *D DFF_X1
*CAP
1 clk:1 8.07
2 clk:2 5.7
3 clk:4 4.74
4 clk:7 1.26
5 clk:8 14.25
6 clk:9 5.7
7 clk:10 5.7
8 clk:11 15.33
9 clk:14 1.27
10 clk:15 8.55
11 clk:16 5.7
12 clk:17 0.78
13 clk:20 7.34
14 clk:21 4.46
15 clk:23 0.42007
16 clk:24 0.49217
17 clk:26 11.4
18 clk:27 11.4
19 clk:28 8.55
20 clk:29 5.7
21 clk:30 5.06
22 clk:32 6.74
23 clk:33 8.26
24 clk:36 1.5
25 clk:37 11.4
26 clk:38 8.55
27 clk:39 7.59
28 clk:41 6.31
29 clk:42 8.55
30 clk:44 9.63
31 clk:45 8.55
32 clk:47 11.4
33 clk:48 8.55
34 clk:49 4.38
35 clk:50 3.77
36 clk:53 9.3
37 clk:54 13.78
38 clk:56 5.7
39 clk:57 5.7
40 clk:58 2.85
41 clk:59 2.85
42 clk:61 8.66
43 clk:62 4.3
44 clk:65 0.45
45 clk:66 8.55
46 clk:67 14.25
47 clk:68 2.85
48 clk:70 8.55
49 clk:71 13.28
50 clk:72 2.85
51 clk:74 7.46
52 clk:75 8.55
53 clk:76 11.4
54 clk:77 1.91
55 clk:79 2.85
56 clk:80 0.0267584
57 clk:81 8.55
58 clk:82 2.85
59 clk:83 2.85
60 clk:84 14.25
61 clk:85 14.25
62 clk:86 0.83
63 clk:89 11.4
64 clk:90 8.55
65 clk:91 22.8
66 clk:92 17.1
67 clk:93 2.85
68 clk:94 2.85
69 clk:95 2.85
70 clk:96 0.48
71 clk:99 2.85
72 clk:100 2.85
73 clk:101 2.85
74 clk:102 5.7
75 clk:103 5.7
76 clk:104 3.75
77 clk:106 9.35
78 clk:108 8.55
79 clk:109 2.85
80 clk:110 3.92
81 clk:113 0.66
82 clk:114 2.85
83 clk:115 2.85
84 clk:116 5.7
85 clk:117 7.39
86 clk:119 8.55
87 clk:120 2.85
88 clk:121 0.18
89 clk:123 3.81
*RES
1 clk:1 clk:2 11.4
2 clk:1 clk:3 0.005
3 clk:2 clk:4 11.4
4 clk:4 clk:5 0.005
5 clk:6 clk:7 0.005
6 clk:7 clk:8 0.005
7 clk:8 clk:9 22.8
8 clk:9 clk:10 0.005
9 clk:10 clk:11 22.8
10 clk:11 clk:12 0.005
11 clk:13 clk:14 0.005
12 clk:14 clk:15 0.005
13 clk:15 clk:16 22.8
14 clk:16 clk:17 0.005
15 clk:18 clk:18 0.005
16 clk:19 clk:20 0.005
17 clk:20 clk:21 11.4
18 clk:21 clk:22 0.005
19 clk:23 clk:24 0.02565
20 clk:25 clk:25 0.003
21 clk:25 clk:26 0.003
22 clk:27 clk:26 45.6
23 clk:28 clk:28 0.005
24 clk:29 clk:30 11.4
25 clk:30 clk:31 0.005
26 clk:32 clk:33 22.8
27 clk:34 clk:34 0.005
28 clk:35 clk:36 0.005
29 clk:36 clk:37 0.005
30 clk:37 clk:38 34.2
31 clk:38 clk:39 0.005
32 clk:40 clk:40 0.005
33 clk:41 clk:42 11.4
34 clk:41 clk:43 0.005
35 clk:44 clk:45 22.8
36 clk:46 clk:46 0.005
37 clk:47 clk:48 22.8
38 clk:49 clk:50 11.4
39 clk:50 clk:51 0.005
40 clk:52 clk:52 0.005
41 clk:53 clk:54 22.8
42 clk:55 clk:55 0.005
43 clk:56 clk:57 0.005
44 clk:58 clk:57 11.4
45 clk:58 clk:59 0.005
46 clk:59 clk:41 11.4
47 clk:60 clk:61 0.005
48 clk:62 clk:61 11.4
49 clk:62 clk:63 0.005
50 clk:64 clk:65 0.005
51 clk:65 clk:66 0.005
52 clk:66 clk:67 22.8
53 clk:67 clk:68 0.005
54 clk:69 clk:69 0.005
55 clk:70 clk:71 34.2
56 clk:70 clk:72 0.005
57 clk:72 clk:66 11.4
58 clk:73 clk:74 0.005
59 clk:74 clk:75 0.005
60 clk:75 clk:76 34.2
61 clk:76 clk:77 0.005
62 clk:78 clk:78 0.005
63 clk:45 clk:79 0.005
64 clk:79 clk:15 11.4
65 clk:80 clk:80 0.005
66 clk:11 clk:81 34.2
67 clk:81 clk:82 0.005
68 clk:82 clk:28 11.4
69 clk:83 clk:84 0.005
70 clk:84 clk:85 34.2
71 clk:85 clk:86 0.005
72 clk:87 clk:87 0.005
73 clk:88 clk:33 0.005
74 clk:33 clk:33 0.005
75 clk:89 clk:90 34.2
76 clk:91 clk:91 0.005
77 clk:91 clk:92 57
78 clk:76 clk:89 11.4
79 clk:92 clk:93 0.005
80 clk:93 clk:37 11.4
81 clk:48 clk:94 0.005
82 clk:94 clk:95 11.4
83 clk:95 clk:96 0.005
84 clk:97 clk:97 0.005
85 clk:98 clk:49 0.005
86 clk:49 clk:99 0.005
87 clk:99 clk:100 11.4
88 clk:100 clk:47 0.005
89 clk:101 clk:53 11.4
90 clk:101 clk:102 0.005
91 clk:102 clk:103 22.8
92 clk:103 clk:104 0.005
93 clk:105 clk:105 0.005
94 clk:106 clk:91 34.2
95 clk:107 clk:107 0.005
96 clk:61 clk:56 22.8
97 clk:67 clk:108 34.2
98 clk:108 clk:109 0.005
99 clk:110 clk:109 11.4
100 clk:110 clk:111 0.005
101 clk:71 clk:104 11.4
102 clk:112 clk:113 0.005
103 clk:113 clk:114 0.005
104 clk:114 clk:115 11.4
105 clk:115 clk:42 0.005
106 clk:85 clk:116 22.8
107 clk:116 clk:29 0.005
108 clk:45 clk:29 11.4
109 clk:92 clk:44 11.4
110 clk:117 clk:39 22.8
111 clk:118 clk:118 0.005
112 clk:42 clk:74 22.8
113 clk:83 clk:20 11.4
114 clk:48 clk:1 11.4
115 clk:2 clk:119 0.005
116 clk:119 clk:8 34.2
117 clk:28 clk:84 22.8
118 clk:54 clk:47 22.8
119 clk:57 clk:120 11.4
120 clk:120 clk:121 0.005
121 clk:122 clk:122 0.005
122 clk:123 clk:68 11.4
123 clk:123 clk:124 0.005
124 _858_:CK clk:1 9.485
125 _859_:CK clk:4 7.565
126 _860_:CK clk:7 5.045
127 _861_:CK clk:17 3.125
128 _862_:CK clk:80 0.00483143
129 _863_:CK clk:21 6.445
130 _864_:CK clk:30 8.845
131 _865_:CK clk:32 4.165
132 _866_:CK clk:39 7.565
133 _867_:CK clk:106 3.205
134 _868_:CK clk:44 4.325
135 _869_:CK clk:50 3.685
136 _870_:CK clk:54 9.525
137 _871_:CK clk:53 3.005
138 _872_:CK clk:121 0.725
139 _873_:CK clk:62 5.805
140 _874_:CK clk:123 3.845
141 _875_:CK clk:65 1.805
142 _876_:CK clk:74 7.045
143 _877_:CK clk:14 5.085
144 _878_:CK clk:11 4.325
145 _879_:CK clk:20 6.565
146 _880_:CK clk:86 3.325
147 _881_:CK clk:33 10.245
148 _882_:CK clk:117 6.765
149 _883_:CK clk:77 7.645
150 _884_:CK clk:36 6.005
151 _885_:CK clk:96 1.925
152 _886_:CK clk:49 6.125
153 _887_:CK clk:104 3.605
154 _888_:CK clk:41 2.445
155 _889_:CK clk:61 0.445
156 _890_:CK clk:110 4.285
157 _891_:CK clk:71 7.525
158 _892_:CK clk:113 2.645
159 clk clk:24 0.0044025
*END

*D_NET req_msg[31] 39.1545
*CONN
*P req_msg[31] I
*I buffer1:A I *D BUF_X4
*CAP
1 req_msg[31]:2 2.415
2 req_msg[31]:3 8.55
3 req_msg[31]:4 8.55
4 req_msg[31]:5 8.55
5 req_msg[31]:6 8.55
6 req_msg[31]:8 0.0622736
*RES
1 req_msg[31]:1 req_msg[31]:2 0.005
2 req_msg[31]:2 req_msg[31]:3 0.005
3 req_msg[31]:3 req_msg[31]:4 34.2
4 req_msg[31]:4 req_msg[31]:5 0.005
5 req_msg[31]:5 req_msg[31]:6 34.2
6 req_msg[31]:6 req_msg[31]:7 0.003
7 req_msg[31]:7 req_msg[31]:8 0.003
8 req_msg[31]:8 req_msg[31]:8 0.003
9 buffer1:A req_msg[31]:2 9.665
10 req_msg[31] req_msg[31]:8 0.0038025
*END

*D_NET req_msg[30] 9.43326
*CONN
*P req_msg[30] I
*I buffer2:A I *D BUF_X4
*CAP
1 req_msg[30]:1 0.140023
2 req_msg[30]:2 0.211632
3 req_msg[30]:4 2.85
4 req_msg[30]:5 2.85
5 req_msg[30]:7 1.655
*RES
1 req_msg[30]:1 req_msg[30]:2 0.00855
2 req_msg[30]:3 req_msg[30]:3 0.003
3 req_msg[30]:3 req_msg[30]:4 0.003
4 req_msg[30]:5 req_msg[30]:4 11.4
5 req_msg[30]:5 req_msg[30]:6 0.005
6 req_msg[30]:7 req_msg[30]:7 0.005
7 req_msg[30]:7 req_msg[30]:8 0.005
8 buffer2:A req_msg[30]:7 6.625
9 req_msg[30] req_msg[30]:2 0.0043725
*END

*D_NET req_msg[29] 13.9145
*CONN
*P req_msg[29] I
*I buffer3:A I *D BUF_X4
*CAP
1 req_msg[29]:1 0.17724
2 req_msg[29]:2 0.140023
3 req_msg[29]:4 5.7
4 req_msg[29]:5 5.7
5 req_msg[29]:7 1.08
*RES
1 req_msg[29]:1 req_msg[29]:2 0.00855
2 req_msg[29]:2 req_msg[29]:3 0.003
3 req_msg[29]:4 req_msg[29]:4 0.003
4 req_msg[29]:4 req_msg[29]:5 22.8
5 req_msg[29]:5 req_msg[29]:6 0.005
6 req_msg[29]:7 req_msg[29]:7 0.005
7 req_msg[29]:7 req_msg[29]:8 0.005
8 buffer3:A req_msg[29]:7 4.325
9 req_msg[29] req_msg[29]:1 0.0022725
*END

*D_NET req_msg[28] 8.39493
*CONN
*P req_msg[28] I
*I buffer4:A I *D BUF_X4
*CAP
1 req_msg[28]:1 0.0274655
2 req_msg[28]:2 0.0189992
3 req_msg[28]:4 2.85
4 req_msg[28]:5 2.85
5 req_msg[28]:6 1.32
*RES
1 req_msg[28]:1 req_msg[28]:2 0.00855
2 req_msg[28]:2 req_msg[28]:3 0.003
3 req_msg[28]:4 req_msg[28]:4 0.005
4 req_msg[28]:4 req_msg[28]:5 11.4
5 req_msg[28]:5 req_msg[28]:6 0.005
6 req_msg[28]:7 req_msg[28]:7 0.005
7 buffer4:A req_msg[28]:6 5.285
8 req_msg[28] req_msg[28]:1 0.00381
*END

*D_NET req_msg[27] 8.27017
*CONN
*P req_msg[27] I
*I buffer5:A I *D BUF_X4
*CAP
1 req_msg[27]:1 0.140023
2 req_msg[27]:2 0.200086
3 req_msg[27]:4 2.85
4 req_msg[27]:5 2.85
5 req_msg[27]:7 1.085
*RES
1 req_msg[27]:1 req_msg[27]:2 0.00855
2 req_msg[27]:3 req_msg[27]:3 0.003
3 req_msg[27]:3 req_msg[27]:4 0.003
4 req_msg[27]:5 req_msg[27]:4 11.4
5 req_msg[27]:5 req_msg[27]:6 0.005
6 req_msg[27]:7 req_msg[27]:7 0.005
7 req_msg[27]:7 req_msg[27]:8 0.005
8 buffer5:A req_msg[27]:7 4.345
9 req_msg[27] req_msg[27]:2 0.0036675
*END

*D_NET req_msg[26] 14.0609
*CONN
*P req_msg[26] I
*I buffer6:A I *D BUF_X4
*CAP
1 req_msg[26]:1 0.180434
2 req_msg[26]:2 0.140023
3 req_msg[26]:4 5.7
4 req_msg[26]:5 5.7
5 req_msg[26]:7 1.15
*RES
1 req_msg[26]:1 req_msg[26]:2 0.00855
2 req_msg[26]:2 req_msg[26]:3 0.003
3 req_msg[26]:4 req_msg[26]:4 0.003
4 req_msg[26]:4 req_msg[26]:5 22.8
5 req_msg[26]:5 req_msg[26]:6 0.005
6 req_msg[26]:7 req_msg[26]:7 0.005
7 req_msg[26]:7 req_msg[26]:8 0.005
8 buffer6:A req_msg[26]:7 4.605
9 req_msg[26] req_msg[26]:1 0.0024675
*END

*D_NET req_msg[25] 10.6081
*CONN
*P req_msg[25] I
*I buffer7:A I *D BUF_X4
*CAP
1 req_msg[25]:1 0.140023
2 req_msg[25]:2 0.229073
3 req_msg[25]:4 2.85
4 req_msg[25]:5 2.85
5 req_msg[25]:7 2.225
*RES
1 req_msg[25]:1 req_msg[25]:2 0.00855
2 req_msg[25]:3 req_msg[25]:3 0.003
3 req_msg[25]:3 req_msg[25]:4 0.003
4 req_msg[25]:5 req_msg[25]:4 11.4
5 req_msg[25]:5 req_msg[25]:6 0.005
6 req_msg[25]:7 req_msg[25]:7 0.005
7 req_msg[25]:7 req_msg[25]:8 0.005
8 buffer7:A req_msg[25]:7 8.905
9 req_msg[25] req_msg[25]:2 0.0054375
*END

*D_NET req_msg[24] 15.4567
*CONN
*P req_msg[24] I
*I buffer8:A I *D BUF_X4
*CAP
1 req_msg[24]:2 2
2 req_msg[24]:3 5.7
3 req_msg[24]:4 5.7
4 req_msg[24]:6 0.0189992
5 req_msg[24]:7 0.0283321
*RES
1 req_msg[24]:1 req_msg[24]:2 0.005
2 req_msg[24]:2 req_msg[24]:3 0.005
3 req_msg[24]:3 req_msg[24]:4 22.8
4 req_msg[24]:4 req_msg[24]:5 0.005
5 req_msg[24]:5 req_msg[24]:6 0.003
6 req_msg[24]:6 req_msg[24]:7 0.00855
7 buffer8:A req_msg[24]:2 8.005
8 req_msg[24] req_msg[24]:7 0.0042
*END

*D_NET req_msg[23] 10.2129
*CONN
*P req_msg[23] I
*I buffer9:A I *D BUF_X4
*CAP
1 req_msg[23]:1 0.140023
2 req_msg[23]:2 0.221458
3 req_msg[23]:4 2.85
4 req_msg[23]:5 2.85
5 req_msg[23]:7 2.035
*RES
1 req_msg[23]:1 req_msg[23]:2 0.00855
2 req_msg[23]:3 req_msg[23]:3 0.003
3 req_msg[23]:3 req_msg[23]:4 0.003
4 req_msg[23]:5 req_msg[23]:4 11.4
5 req_msg[23]:5 req_msg[23]:6 0.005
6 req_msg[23]:7 req_msg[23]:7 0.005
7 req_msg[23]:7 req_msg[23]:8 0.005
8 buffer9:A req_msg[23]:7 8.145
9 req_msg[23] req_msg[23]:2 0.0049725
*END

*D_NET req_msg[22] 49.6735
*CONN
*P req_msg[22] I
*I buffer10:A I *D BUF_X4
*CAP
1 req_msg[22]:2 2.03
2 req_msg[22]:3 14.25
3 req_msg[22]:4 14.25
4 req_msg[22]:5 8.55
5 req_msg[22]:6 8.55
6 req_msg[22]:7 0.00673304
*RES
1 req_msg[22]:1 req_msg[22]:2 0.005
2 req_msg[22]:2 req_msg[22]:3 0.005
3 req_msg[22]:3 req_msg[22]:4 57
4 req_msg[22]:4 req_msg[22]:4 0.005
5 req_msg[22]:5 req_msg[22]:6 34.2
6 req_msg[22]:5 req_msg[22]:7 0.003
7 req_msg[22]:7 req_msg[22]:7 0.003
8 buffer10:A req_msg[22]:2 8.125
9 req_msg[22] req_msg[22]:7 0.00303
*END

*D_NET req_msg[21] 14.1047
*CONN
*P req_msg[21] I
*I buffer11:A I *D BUF_X4
*CAP
1 req_msg[21]:2 1.325
2 req_msg[21]:3 5.7
3 req_msg[21]:4 5.7
4 req_msg[21]:6 0.0189992
5 req_msg[21]:7 0.0273655
*RES
1 req_msg[21]:1 req_msg[21]:2 0.005
2 req_msg[21]:2 req_msg[21]:3 0.005
3 req_msg[21]:3 req_msg[21]:4 22.8
4 req_msg[21]:4 req_msg[21]:5 0.005
5 req_msg[21]:5 req_msg[21]:6 0.003
6 req_msg[21]:6 req_msg[21]:7 0.00855
7 buffer11:A req_msg[21]:2 5.305
8 req_msg[21] req_msg[21]:7 0.003765
*END

*D_NET req_msg[20] 14.4836
*CONN
*P req_msg[20] I
*I buffer12:A I *D BUF_X4
*CAP
1 req_msg[20]:1 0.201806
2 req_msg[20]:2 0.140023
3 req_msg[20]:4 5.7
4 req_msg[20]:5 5.7
5 req_msg[20]:7 1.34
*RES
1 req_msg[20]:1 req_msg[20]:2 0.00855
2 req_msg[20]:2 req_msg[20]:3 0.003
3 req_msg[20]:4 req_msg[20]:4 0.003
4 req_msg[20]:4 req_msg[20]:5 22.8
5 req_msg[20]:5 req_msg[20]:6 0.005
6 req_msg[20]:7 req_msg[20]:7 0.005
7 req_msg[20]:7 req_msg[20]:8 0.005
8 buffer12:A req_msg[20]:7 5.365
9 req_msg[20] req_msg[20]:1 0.0037725
*END

*D_NET req_msg[19] 8.51459
*CONN
*P req_msg[19] I
*I buffer13:A I *D BUF_X4
*CAP
1 req_msg[19]:1 0.140023
2 req_msg[19]:2 0.202297
3 req_msg[19]:4 2.85
4 req_msg[19]:5 2.85
5 req_msg[19]:7 1.205
*RES
1 req_msg[19]:1 req_msg[19]:2 0.00855
2 req_msg[19]:3 req_msg[19]:3 0.003
3 req_msg[19]:3 req_msg[19]:4 0.003
4 req_msg[19]:5 req_msg[19]:4 11.4
5 req_msg[19]:5 req_msg[19]:6 0.005
6 req_msg[19]:7 req_msg[19]:7 0.005
7 req_msg[19]:7 req_msg[19]:8 0.005
8 buffer13:A req_msg[19]:7 4.825
9 req_msg[19] req_msg[19]:2 0.0038025
*END

*D_NET req_msg[18] 8.89902
*CONN
*P req_msg[18] I
*I buffer14:A I *D BUF_X4
*CAP
1 req_msg[18]:1 0.140023
2 req_msg[18]:2 0.204508
3 req_msg[18]:4 2.85
4 req_msg[18]:5 2.85
5 req_msg[18]:7 1.395
*RES
1 req_msg[18]:1 req_msg[18]:2 0.00855
2 req_msg[18]:3 req_msg[18]:3 0.003
3 req_msg[18]:3 req_msg[18]:4 0.003
4 req_msg[18]:5 req_msg[18]:4 11.4
5 req_msg[18]:5 req_msg[18]:6 0.005
6 req_msg[18]:7 req_msg[18]:7 0.005
7 req_msg[18]:7 req_msg[18]:8 0.005
8 buffer14:A req_msg[18]:7 5.585
9 req_msg[18] req_msg[18]:2 0.0039375
*END

*D_NET req_msg[17] 13.3021
*CONN
*P req_msg[17] I
*I buffer15:A I *D BUF_X4
*CAP
1 req_msg[17]:2 0.925
2 req_msg[17]:3 5.7
3 req_msg[17]:4 5.7
4 req_msg[17]:6 0.0189992
5 req_msg[17]:7 0.0260322
*RES
1 req_msg[17]:1 req_msg[17]:2 0.005
2 req_msg[17]:2 req_msg[17]:3 0.005
3 req_msg[17]:3 req_msg[17]:4 22.8
4 req_msg[17]:4 req_msg[17]:5 0.005
5 req_msg[17]:5 req_msg[17]:6 0.003
6 req_msg[17]:6 req_msg[17]:7 0.00855
7 buffer15:A req_msg[17]:2 3.705
8 req_msg[17] req_msg[17]:7 0.003165
*END

*D_NET req_msg[16] 9.04983
*CONN
*P req_msg[16] I
*I buffer16:A I *D BUF_X4
*CAP
1 req_msg[16]:1 0.140023
2 req_msg[16]:2 0.209912
3 req_msg[16]:4 2.85
4 req_msg[16]:5 2.85
5 req_msg[16]:7 1.465
*RES
1 req_msg[16]:1 req_msg[16]:2 0.00855
2 req_msg[16]:3 req_msg[16]:3 0.003
3 req_msg[16]:3 req_msg[16]:4 0.003
4 req_msg[16]:5 req_msg[16]:4 11.4
5 req_msg[16]:5 req_msg[16]:6 0.005
6 req_msg[16]:7 req_msg[16]:7 0.005
7 req_msg[16]:7 req_msg[16]:8 0.005
8 buffer16:A req_msg[16]:7 5.865
9 req_msg[16] req_msg[16]:2 0.0042675
*END

*D_NET req_msg[15] 13.9255
*CONN
*P req_msg[15] I
*I buffer17:A I *D BUF_X4
*CAP
1 req_msg[15]:1 0.0700117
2 req_msg[15]:2 0.149236
3 req_msg[15]:3 0.0284988
4 req_msg[15]:4 0.0284988
5 req_msg[15]:7 5.7
6 req_msg[15]:8 6.785
*RES
1 req_msg[15]:1 req_msg[15]:2 0.004275
2 req_msg[15]:1 req_msg[15]:3 0.003
3 req_msg[15]:3 req_msg[15]:4 0.012825
4 req_msg[15]:4 req_msg[15]:5 0.003
5 req_msg[15]:6 req_msg[15]:6 0.005
6 req_msg[15]:6 req_msg[15]:7 0.005
7 req_msg[15]:8 req_msg[15]:7 22.8
8 req_msg[15]:9 req_msg[15]:9 0.005
9 buffer17:A req_msg[15]:8 4.345
10 req_msg[15] req_msg[15]:2 0.0048375
*END

*D_NET req_msg[14] 14.6941
*CONN
*P req_msg[14] I
*I buffer18:A I *D BUF_X4
*CAP
1 req_msg[14]:1 0.187066
2 req_msg[14]:2 0.140023
3 req_msg[14]:4 5.7
4 req_msg[14]:5 5.7
5 req_msg[14]:7 1.46
*RES
1 req_msg[14]:1 req_msg[14]:2 0.00855
2 req_msg[14]:2 req_msg[14]:3 0.003
3 req_msg[14]:4 req_msg[14]:4 0.003
4 req_msg[14]:4 req_msg[14]:5 22.8
5 req_msg[14]:5 req_msg[14]:6 0.005
6 req_msg[14]:7 req_msg[14]:7 0.005
7 req_msg[14]:7 req_msg[14]:8 0.005
8 buffer18:A req_msg[14]:7 5.845
9 req_msg[14] req_msg[14]:1 0.0028725
*END

*D_NET req_msg[13] 16.2525
*CONN
*P req_msg[13] I
*I buffer19:A I *D BUF_X4
*CAP
1 req_msg[13]:1 0.206228
2 req_msg[13]:2 0.140023
3 req_msg[13]:4 5.7
4 req_msg[13]:5 5.7
5 req_msg[13]:7 2.22
*RES
1 req_msg[13]:1 req_msg[13]:2 0.00855
2 req_msg[13]:2 req_msg[13]:3 0.003
3 req_msg[13]:4 req_msg[13]:4 0.003
4 req_msg[13]:4 req_msg[13]:5 22.8
5 req_msg[13]:5 req_msg[13]:6 0.005
6 req_msg[13]:7 req_msg[13]:7 0.005
7 req_msg[13]:7 req_msg[13]:8 0.005
8 buffer19:A req_msg[13]:7 8.885
9 req_msg[13] req_msg[13]:1 0.0040425
*END

*D_NET req_msg[12] 14.9074
*CONN
*P req_msg[12] I
*I buffer20:A I *D BUF_X4
*CAP
1 req_msg[12]:2 1.725
2 req_msg[12]:3 5.7
3 req_msg[12]:4 5.7
4 req_msg[12]:6 0.0189992
5 req_msg[12]:7 0.0286988
*RES
1 req_msg[12]:1 req_msg[12]:2 0.005
2 req_msg[12]:2 req_msg[12]:3 0.005
3 req_msg[12]:3 req_msg[12]:4 22.8
4 req_msg[12]:4 req_msg[12]:5 0.005
5 req_msg[12]:5 req_msg[12]:6 0.003
6 req_msg[12]:6 req_msg[12]:7 0.00855
7 buffer20:A req_msg[12]:2 6.905
8 req_msg[12] req_msg[12]:7 0.004365
*END

*D_NET req_msg[11] 14.8405
*CONN
*P req_msg[11] I
*I buffer21:A I *D BUF_X4
*CAP
1 req_msg[11]:1 0.19026
2 req_msg[11]:2 0.140023
3 req_msg[11]:4 5.7
4 req_msg[11]:5 5.7
5 req_msg[11]:7 1.53
*RES
1 req_msg[11]:1 req_msg[11]:2 0.00855
2 req_msg[11]:2 req_msg[11]:3 0.003
3 req_msg[11]:4 req_msg[11]:4 0.003
4 req_msg[11]:4 req_msg[11]:5 22.8
5 req_msg[11]:5 req_msg[11]:6 0.005
6 req_msg[11]:7 req_msg[11]:7 0.005
7 req_msg[11]:7 req_msg[11]:8 0.005
8 buffer21:A req_msg[11]:7 6.125
9 req_msg[11] req_msg[11]:1 0.0030675
*END

*D_NET req_msg[10] 10.9926
*CONN
*P req_msg[10] I
*I buffer22:A I *D BUF_X4
*CAP
1 req_msg[10]:1 0.140023
2 req_msg[10]:2 0.231284
3 req_msg[10]:4 2.85
4 req_msg[10]:5 2.85
5 req_msg[10]:7 2.415
*RES
1 req_msg[10]:1 req_msg[10]:2 0.00855
2 req_msg[10]:3 req_msg[10]:3 0.003
3 req_msg[10]:3 req_msg[10]:4 0.003
4 req_msg[10]:5 req_msg[10]:4 11.4
5 req_msg[10]:5 req_msg[10]:6 0.005
6 req_msg[10]:7 req_msg[10]:7 0.005
7 req_msg[10]:7 req_msg[10]:8 0.005
8 buffer22:A req_msg[10]:7 9.665
9 req_msg[10] req_msg[10]:2 0.0055725
*END

*D_NET req_msg[9] 14.8964
*CONN
*P req_msg[9] I
*I buffer23:A I *D BUF_X4
*CAP
1 req_msg[9]:1 0.0281988
2 req_msg[9]:2 0.0189992
3 req_msg[9]:4 2.85
4 req_msg[9]:5 2.85
5 req_msg[9]:6 2.85
6 req_msg[9]:7 4.57
*RES
1 req_msg[9]:1 req_msg[9]:2 0.00855
2 req_msg[9]:2 req_msg[9]:3 0.003
3 req_msg[9]:4 req_msg[9]:4 0.005
4 req_msg[9]:4 req_msg[9]:5 11.4
5 req_msg[9]:5 req_msg[9]:6 0.005
6 req_msg[9]:6 req_msg[9]:7 11.4
7 req_msg[9]:7 req_msg[9]:8 0.005
8 buffer23:A req_msg[9]:7 6.885
9 req_msg[9] req_msg[9]:1 0.00414
*END

*D_NET req_msg[8] 20.4587
*CONN
*P req_msg[8] I
*I buffer24:A I *D BUF_X4
*CAP
1 req_msg[8]:1 0.140023
2 req_msg[8]:2 0.214334
3 req_msg[8]:5 5.7
4 req_msg[8]:6 5.7
5 req_msg[8]:7 2.85
6 req_msg[8]:8 4.315
*RES
1 req_msg[8]:1 req_msg[8]:2 0.00855
2 req_msg[8]:3 req_msg[8]:3 0.003
3 req_msg[8]:3 req_msg[8]:4 0.003
4 req_msg[8]:5 req_msg[8]:5 0.005
5 req_msg[8]:5 req_msg[8]:6 22.8
6 req_msg[8]:6 req_msg[8]:7 0.005
7 req_msg[8]:8 req_msg[8]:7 11.4
8 req_msg[8]:8 req_msg[8]:9 0.005
9 buffer24:A req_msg[8]:8 5.865
10 req_msg[8] req_msg[8]:2 0.0045375
*END

*D_NET req_msg[7] 14.3493
*CONN
*P req_msg[7] I
*I buffer25:A I *D BUF_X4
*CAP
1 req_msg[7]:2 1.45
2 req_msg[7]:3 5.7
3 req_msg[7]:4 5.7
4 req_msg[7]:6 0.0189992
5 req_msg[7]:7 0.0246323
*RES
1 req_msg[7]:1 req_msg[7]:2 0.005
2 req_msg[7]:2 req_msg[7]:3 0.005
3 req_msg[7]:3 req_msg[7]:4 22.8
4 req_msg[7]:4 req_msg[7]:5 0.005
5 req_msg[7]:5 req_msg[7]:6 0.003
6 req_msg[7]:6 req_msg[7]:7 0.00855
7 buffer25:A req_msg[7]:2 5.805
8 req_msg[7] req_msg[7]:7 0.002535
*END

*D_NET req_msg[6] 6.43913
*CONN
*P req_msg[6] I
*I buffer26:A I *D BUF_X4
*CAP
1 req_msg[6]:1 0.0245656
2 req_msg[6]:2 0.0189992
3 req_msg[6]:4 2.85
4 req_msg[6]:5 2.85
5 req_msg[6]:6 0.345
*RES
1 req_msg[6]:1 req_msg[6]:2 0.00855
2 req_msg[6]:2 req_msg[6]:3 0.003
3 req_msg[6]:4 req_msg[6]:4 0.005
4 req_msg[6]:4 req_msg[6]:5 11.4
5 req_msg[6]:5 req_msg[6]:6 0.005
6 req_msg[6]:7 req_msg[6]:7 0.005
7 buffer26:A req_msg[6]:6 1.385
8 req_msg[6] req_msg[6]:1 0.002505
*END

*D_NET req_msg[5] 32.0239
*CONN
*P req_msg[5] I
*I buffer27:A I *D BUF_X4
*CAP
1 req_msg[5]:2 14.25
2 req_msg[5]:3 15.95
3 req_msg[5]:6 0.00949959
4 req_msg[5]:7 0.00949959
5 req_msg[5]:8 0.0524474
*RES
1 req_msg[5]:1 req_msg[5]:1 0.005
2 req_msg[5]:2 req_msg[5]:3 57
3 req_msg[5]:2 req_msg[5]:4 0.005
4 req_msg[5]:4 req_msg[5]:5 0.005
5 req_msg[5]:5 req_msg[5]:6 0.003
6 req_msg[5]:6 req_msg[5]:7 0.004275
7 req_msg[5]:7 req_msg[5]:8 0.003
8 req_msg[5]:8 req_msg[5]:8 0.003
9 buffer27:A req_msg[5]:3 6.805
10 req_msg[5] req_msg[5]:8 0.0032025
*END

*D_NET req_msg[4] 15.1519
*CONN
*P req_msg[4] I
*I buffer28:A I *D BUF_X4
*CAP
1 req_msg[4]:2 1.85
2 req_msg[4]:3 5.7
3 req_msg[4]:4 5.7
4 req_msg[4]:6 0.0189992
5 req_msg[4]:7 0.0259656
*RES
1 req_msg[4]:1 req_msg[4]:2 0.005
2 req_msg[4]:2 req_msg[4]:3 0.005
3 req_msg[4]:3 req_msg[4]:4 22.8
4 req_msg[4]:4 req_msg[4]:5 0.005
5 req_msg[4]:5 req_msg[4]:6 0.003
6 req_msg[4]:6 req_msg[4]:7 0.00855
7 buffer28:A req_msg[4]:2 7.405
8 req_msg[4] req_msg[4]:7 0.003135
*END

*D_NET req_msg[3] 24.6544
*CONN
*P req_msg[3] I
*I buffer29:A I *D BUF_X4
*CAP
1 req_msg[3]:1 2.85
2 req_msg[3]:2 0.00719969
3 req_msg[3]:3 2.85
4 req_msg[3]:4 8.55
5 req_msg[3]:5 8.55
6 req_msg[3]:6 0.92
*RES
1 req_msg[3]:1 req_msg[3]:2 0.003
2 req_msg[3]:2 req_msg[3]:2 0.003
3 req_msg[3]:3 req_msg[3]:1 11.4
4 req_msg[3]:3 req_msg[3]:4 0.005
5 req_msg[3]:4 req_msg[3]:5 34.2
6 req_msg[3]:5 req_msg[3]:6 0.005
7 req_msg[3]:7 req_msg[3]:7 0.005
8 buffer29:A req_msg[3]:6 3.685
9 req_msg[3] req_msg[3]:2 0.00324
*END

*D_NET req_msg[2] 13.9343
*CONN
*P req_msg[2] I
*I buffer30:A I *D BUF_X4
*CAP
1 req_msg[2]:2 6.785
2 req_msg[2]:3 5.7
3 req_msg[2]:6 0.0284988
4 req_msg[2]:7 0.0284988
5 req_msg[2]:8 0.0700117
6 req_msg[2]:9 0.153657
*RES
1 req_msg[2]:1 req_msg[2]:2 0.005
2 req_msg[2]:2 req_msg[2]:3 22.8
3 req_msg[2]:3 req_msg[2]:4 0.005
4 req_msg[2]:4 req_msg[2]:5 0.005
5 req_msg[2]:5 req_msg[2]:6 0.003
6 req_msg[2]:6 req_msg[2]:7 0.012825
7 req_msg[2]:7 req_msg[2]:8 0.003
8 req_msg[2]:8 req_msg[2]:9 0.004275
9 buffer30:A req_msg[2]:2 4.345
10 req_msg[2] req_msg[2]:9 0.0051075
*END

*D_NET req_msg[1] 16.4033
*CONN
*P req_msg[1] I
*I buffer31:A I *D BUF_X4
*CAP
1 req_msg[1]:1 0.211632
2 req_msg[1]:2 0.140023
3 req_msg[1]:4 5.7
4 req_msg[1]:5 5.7
5 req_msg[1]:7 2.29
*RES
1 req_msg[1]:1 req_msg[1]:2 0.00855
2 req_msg[1]:2 req_msg[1]:3 0.003
3 req_msg[1]:4 req_msg[1]:4 0.003
4 req_msg[1]:4 req_msg[1]:5 22.8
5 req_msg[1]:5 req_msg[1]:6 0.005
6 req_msg[1]:7 req_msg[1]:7 0.005
7 req_msg[1]:7 req_msg[1]:8 0.005
8 buffer31:A req_msg[1]:7 9.165
9 req_msg[1] req_msg[1]:1 0.0043725
*END

*D_NET req_msg[0] 14.654
*CONN
*P req_msg[0] I
*I buffer32:A I *D BUF_X4
*CAP
1 req_msg[0]:2 1.6
2 req_msg[0]:3 5.7
3 req_msg[0]:4 5.7
4 req_msg[0]:6 0.0189992
5 req_msg[0]:7 0.0269988
*RES
1 req_msg[0]:1 req_msg[0]:2 0.005
2 req_msg[0]:2 req_msg[0]:3 0.005
3 req_msg[0]:3 req_msg[0]:4 22.8
4 req_msg[0]:4 req_msg[0]:5 0.005
5 req_msg[0]:5 req_msg[0]:6 0.003
6 req_msg[0]:6 req_msg[0]:7 0.00855
7 buffer32:A req_msg[0]:2 6.405
8 req_msg[0] req_msg[0]:7 0.0036
*END

*D_NET req_rdy 11.0659
*CONN
*P req_rdy O
*I buffer36:Z O *D BUF_X4
*CAP
1 req_rdy:1 0.279433
2 req_rdy:2 0.210035
3 req_rdy:3 0.0284988
4 req_rdy:4 0.0284988
5 req_rdy:7 2.85
6 req_rdy:8 5.225
*RES
1 req_rdy:1 req_rdy:2 0.012825
2 req_rdy:2 req_rdy:3 0.003
3 req_rdy:3 req_rdy:4 0.012825
4 req_rdy:4 req_rdy:5 0.003
5 req_rdy:6 req_rdy:6 0.005
6 req_rdy:6 req_rdy:7 0.005
7 req_rdy:7 req_rdy:8 11.4
8 req_rdy:8 req_rdy:9 0.005
9 buffer36:Z req_rdy:8 9.505
10 req_rdy req_rdy:1 0.0042375
*END

*D_NET req_val 27.1613
*CONN
*P req_val I
*I buffer33:A I *D BUF_X4
*CAP
1 req_val:2 2.155
2 req_val:3 8.55
3 req_val:4 8.55
4 req_val:5 2.85
5 req_val:6 2.85
6 req_val:7 0.0189992
7 req_val:8 0.0256656
*RES
1 req_val:1 req_val:2 0.005
2 req_val:2 req_val:3 0.005
3 req_val:3 req_val:4 34.2
4 req_val:4 req_val:5 0.005
5 req_val:5 req_val:6 11.4
6 req_val:6 req_val:7 0.003
7 req_val:7 req_val:8 0.00855
8 buffer33:A req_val:2 8.625
9 req_val req_val:8 0.003
*END

*D_NET reset 7.2418
*CONN
*P reset I
*I buffer34:A I *D BUF_X4
*CAP
1 reset:1 0.0258989
2 reset:2 0.0189992
3 reset:4 2.85
4 reset:5 2.85
5 reset:6 0.745
*RES
1 reset:1 reset:2 0.00855
2 reset:2 reset:3 0.003
3 reset:4 reset:4 0.005
4 reset:4 reset:5 11.4
5 reset:5 reset:6 0.005
6 reset:7 reset:7 0.005
7 buffer34:A reset:6 2.985
8 reset reset:1 0.003105
*END

*D_NET resp_msg[15] 19.4089
*CONN
*P resp_msg[15] O
*I buffer37:Z O *D BUF_X4
*CAP
1 resp_msg[15]:1 0.179451
2 resp_msg[15]:2 0.140023
3 resp_msg[15]:5 2.85
4 resp_msg[15]:6 2.85
5 resp_msg[15]:7 5.7
6 resp_msg[15]:8 6.675
*RES
1 resp_msg[15]:1 resp_msg[15]:2 0.00855
2 resp_msg[15]:2 resp_msg[15]:3 0.003
3 resp_msg[15]:4 resp_msg[15]:4 0.003
4 resp_msg[15]:4 resp_msg[15]:5 0.005
5 resp_msg[15]:5 resp_msg[15]:6 11.4
6 resp_msg[15]:6 resp_msg[15]:7 0.005
7 resp_msg[15]:7 resp_msg[15]:8 22.8
8 resp_msg[15]:8 resp_msg[15]:9 0.005
9 buffer37:Z resp_msg[15]:8 3.905
10 resp_msg[15] resp_msg[15]:1 0.0024075
*END

*D_NET resp_msg[14] 26.4952
*CONN
*P resp_msg[14] O
*I buffer38:Z O *D BUF_X4
*CAP
1 resp_msg[14]:2 11.4
2 resp_msg[14]:3 13.205
3 resp_msg[14]:7 0.0426212
*RES
1 resp_msg[14]:1 resp_msg[14]:1 0.005
2 resp_msg[14]:2 resp_msg[14]:3 45.6
3 resp_msg[14]:2 resp_msg[14]:4 0.005
4 resp_msg[14]:4 resp_msg[14]:5 0.005
5 resp_msg[14]:5 resp_msg[14]:6 0.003
6 resp_msg[14]:6 resp_msg[14]:7 0.003
7 resp_msg[14]:7 resp_msg[14]:7 0.003
8 buffer38:Z resp_msg[14]:3 7.225
9 resp_msg[14] resp_msg[14]:7 0.0026025
*END

*D_NET resp_msg[13] 28.9093
*CONN
*P resp_msg[13] O
*I buffer39:Z O *D BUF_X4
*CAP
1 resp_msg[13]:2 5.895
2 resp_msg[13]:3 2.85
3 resp_msg[13]:4 8.55
4 resp_msg[13]:5 8.55
5 resp_msg[13]:7 0.00963292
*RES
1 resp_msg[13]:1 resp_msg[13]:2 0.005
2 resp_msg[13]:3 resp_msg[13]:2 11.4
3 resp_msg[13]:3 resp_msg[13]:4 0.005
4 resp_msg[13]:4 resp_msg[13]:5 34.2
5 resp_msg[13]:5 resp_msg[13]:6 0.005
6 resp_msg[13]:6 resp_msg[13]:7 0.003
7 resp_msg[13]:7 resp_msg[13]:7 0.003
8 buffer39:Z resp_msg[13]:2 12.185
9 resp_msg[13] resp_msg[13]:7 0.004335
*END

*D_NET resp_msg[12] 32.0428
*CONN
*P resp_msg[12] O
*I buffer40:Z O *D BUF_X4
*CAP
1 resp_msg[12]:2 8.55
2 resp_msg[12]:3 10.195
3 resp_msg[12]:4 5.7
4 resp_msg[12]:5 5.7
5 resp_msg[12]:8 0.0700117
6 resp_msg[12]:9 0.12639
*RES
1 resp_msg[12]:1 resp_msg[12]:1 0.005
2 resp_msg[12]:2 resp_msg[12]:3 34.2
3 resp_msg[12]:2 resp_msg[12]:4 0.005
4 resp_msg[12]:4 resp_msg[12]:5 22.8
5 resp_msg[12]:5 resp_msg[12]:6 0.005
6 resp_msg[12]:6 resp_msg[12]:7 0.003
7 resp_msg[12]:7 resp_msg[12]:8 0.003
8 resp_msg[12]:9 resp_msg[12]:8 0.004275
9 buffer40:Z resp_msg[12]:3 6.585
10 resp_msg[12] resp_msg[12]:9 0.0034425
*END

*D_NET resp_msg[11] 29.7066
*CONN
*P resp_msg[11] O
*I buffer41:Z O *D BUF_X4
*CAP
1 resp_msg[11]:2 6.295
2 resp_msg[11]:3 2.85
3 resp_msg[11]:4 8.55
4 resp_msg[11]:5 8.55
5 resp_msg[11]:7 0.00829964
*RES
1 resp_msg[11]:1 resp_msg[11]:2 0.005
2 resp_msg[11]:3 resp_msg[11]:2 11.4
3 resp_msg[11]:3 resp_msg[11]:4 0.005
4 resp_msg[11]:4 resp_msg[11]:5 34.2
5 resp_msg[11]:5 resp_msg[11]:6 0.005
6 resp_msg[11]:6 resp_msg[11]:7 0.003
7 resp_msg[11]:7 resp_msg[11]:7 0.003
8 buffer41:Z resp_msg[11]:2 13.785
9 resp_msg[11] resp_msg[11]:7 0.003735
*END

*D_NET resp_msg[10] 9.09793
*CONN
*P resp_msg[10] O
*I buffer42:Z O *D BUF_X4
*CAP
1 resp_msg[10]:1 0.0239656
2 resp_msg[10]:2 0.0189992
3 resp_msg[10]:4 2.85
4 resp_msg[10]:5 2.85
5 resp_msg[10]:6 1.675
*RES
1 resp_msg[10]:1 resp_msg[10]:2 0.00855
2 resp_msg[10]:2 resp_msg[10]:3 0.003
3 resp_msg[10]:4 resp_msg[10]:4 0.005
4 resp_msg[10]:4 resp_msg[10]:5 11.4
5 resp_msg[10]:5 resp_msg[10]:6 0.005
6 resp_msg[10]:7 resp_msg[10]:7 0.005
7 buffer42:Z resp_msg[10]:6 6.705
8 resp_msg[10] resp_msg[10]:1 0.002235
*END

*D_NET resp_msg[9] 23.2072
*CONN
*P resp_msg[9] O
*I buffer43:Z O *D BUF_X4
*CAP
1 resp_msg[9]:1 0.198612
2 resp_msg[9]:2 0.140023
3 resp_msg[9]:5 2.85
4 resp_msg[9]:6 2.85
5 resp_msg[9]:7 5.7
6 resp_msg[9]:8 8.555
*RES
1 resp_msg[9]:1 resp_msg[9]:2 0.00855
2 resp_msg[9]:2 resp_msg[9]:3 0.003
3 resp_msg[9]:4 resp_msg[9]:4 0.003
4 resp_msg[9]:4 resp_msg[9]:5 0.005
5 resp_msg[9]:5 resp_msg[9]:6 11.4
6 resp_msg[9]:6 resp_msg[9]:7 0.005
7 resp_msg[9]:7 resp_msg[9]:8 22.8
8 resp_msg[9]:8 resp_msg[9]:9 0.005
9 buffer43:Z resp_msg[9]:8 11.425
10 resp_msg[9] resp_msg[9]:1 0.0035775
*END

*D_NET resp_msg[8] 8.60373
*CONN
*P resp_msg[8] O
*I buffer44:Z O *D BUF_X4
*CAP
1 resp_msg[8]:1 0.0268655
2 resp_msg[8]:2 0.0189992
3 resp_msg[8]:4 2.85
4 resp_msg[8]:5 2.85
5 resp_msg[8]:6 1.425
*RES
1 resp_msg[8]:1 resp_msg[8]:2 0.00855
2 resp_msg[8]:2 resp_msg[8]:3 0.003
3 resp_msg[8]:4 resp_msg[8]:4 0.005
4 resp_msg[8]:4 resp_msg[8]:5 11.4
5 resp_msg[8]:5 resp_msg[8]:6 0.005
6 resp_msg[8]:7 resp_msg[8]:7 0.005
7 buffer44:Z resp_msg[8]:6 5.705
8 resp_msg[8] resp_msg[8]:1 0.00354
*END

*D_NET resp_msg[7] 40.3725
*CONN
*P resp_msg[7] O
*I buffer45:Z O *D BUF_X4
*CAP
1 resp_msg[7]:2 2.995
2 resp_msg[7]:3 8.55
3 resp_msg[7]:4 8.55
4 resp_msg[7]:5 8.55
5 resp_msg[7]:6 8.55
6 resp_msg[7]:8 0.0912609
*RES
1 resp_msg[7]:1 resp_msg[7]:2 0.005
2 resp_msg[7]:2 resp_msg[7]:3 0.005
3 resp_msg[7]:3 resp_msg[7]:4 34.2
4 resp_msg[7]:4 resp_msg[7]:5 0.005
5 resp_msg[7]:5 resp_msg[7]:6 34.2
6 resp_msg[7]:6 resp_msg[7]:7 0.003
7 resp_msg[7]:7 resp_msg[7]:8 0.003
8 resp_msg[7]:8 resp_msg[7]:8 0.003
9 buffer45:Z resp_msg[7]:2 11.985